* NGSPICE file created from pc.ext - technology: sky130B

* Black-box entry subcircuit for sky130_fd_sc_hd__tapvpwrvgnd_1 abstract view
.subckt sky130_fd_sc_hd__tapvpwrvgnd_1 VGND VPWR
.ends

* Black-box entry subcircuit for sky130_fd_sc_hd__diode_2 abstract view
.subckt sky130_fd_sc_hd__diode_2 DIODE VGND VNB VPB VPWR
.ends

* Black-box entry subcircuit for sky130_fd_sc_hd__decap_6 abstract view
.subckt sky130_fd_sc_hd__decap_6 VGND VNB VPB VPWR
.ends

* Black-box entry subcircuit for sky130_ef_sc_hd__decap_12 abstract view
.subckt sky130_ef_sc_hd__decap_12 VGND VPWR VPB VNB
.ends

* Black-box entry subcircuit for sky130_fd_sc_hd__decap_4 abstract view
.subckt sky130_fd_sc_hd__decap_4 VGND VNB VPB VPWR
.ends

* Black-box entry subcircuit for sky130_fd_sc_hd__fill_1 abstract view
.subckt sky130_fd_sc_hd__fill_1 VGND VNB VPB VPWR
.ends

* Black-box entry subcircuit for sky130_fd_sc_hd__decap_3 abstract view
.subckt sky130_fd_sc_hd__decap_3 VGND VNB VPB VPWR
.ends

* Black-box entry subcircuit for sky130_fd_sc_hd__xnor2_1 abstract view
.subckt sky130_fd_sc_hd__xnor2_1 A B VGND VNB VPB VPWR Y
.ends

* Black-box entry subcircuit for sky130_fd_sc_hd__decap_8 abstract view
.subckt sky130_fd_sc_hd__decap_8 VGND VNB VPB VPWR
.ends

* Black-box entry subcircuit for sky130_fd_sc_hd__dfxtp_2 abstract view
.subckt sky130_fd_sc_hd__dfxtp_2 CLK D VGND VNB VPB VPWR Q
.ends

* Black-box entry subcircuit for sky130_fd_sc_hd__a21o_1 abstract view
.subckt sky130_fd_sc_hd__a21o_1 A1 A2 B1 VGND VNB VPB VPWR X
.ends

* Black-box entry subcircuit for sky130_fd_sc_hd__fill_2 abstract view
.subckt sky130_fd_sc_hd__fill_2 VGND VNB VPB VPWR
.ends

* Black-box entry subcircuit for sky130_fd_sc_hd__and2_1 abstract view
.subckt sky130_fd_sc_hd__and2_1 A B VGND VNB VPB VPWR X
.ends

* Black-box entry subcircuit for sky130_fd_sc_hd__nor2_1 abstract view
.subckt sky130_fd_sc_hd__nor2_1 A B VGND VNB VPB VPWR Y
.ends

* Black-box entry subcircuit for sky130_fd_sc_hd__o21ai_1 abstract view
.subckt sky130_fd_sc_hd__o21ai_1 A1 A2 B1 VGND VNB VPB VPWR Y
.ends

* Black-box entry subcircuit for sky130_fd_sc_hd__and4b_1 abstract view
.subckt sky130_fd_sc_hd__and4b_1 A_N B C D VGND VNB VPB VPWR X
.ends

* Black-box entry subcircuit for sky130_fd_sc_hd__nand3_1 abstract view
.subckt sky130_fd_sc_hd__nand3_1 A B C VGND VNB VPB VPWR Y
.ends

* Black-box entry subcircuit for sky130_fd_sc_hd__a31o_1 abstract view
.subckt sky130_fd_sc_hd__a31o_1 A1 A2 A3 B1 VGND VNB VPB VPWR X
.ends

* Black-box entry subcircuit for sky130_fd_sc_hd__a31oi_1 abstract view
.subckt sky130_fd_sc_hd__a31oi_1 A1 A2 A3 B1 VGND VNB VPB VPWR Y
.ends

* Black-box entry subcircuit for sky130_fd_sc_hd__and3_1 abstract view
.subckt sky130_fd_sc_hd__and3_1 A B C VGND VNB VPB VPWR X
.ends

* Black-box entry subcircuit for sky130_fd_sc_hd__a21oi_1 abstract view
.subckt sky130_fd_sc_hd__a21oi_1 A1 A2 B1 VGND VNB VPB VPWR Y
.ends

* Black-box entry subcircuit for sky130_fd_sc_hd__o311a_1 abstract view
.subckt sky130_fd_sc_hd__o311a_1 A1 A2 A3 B1 C1 VGND VNB VPB VPWR X
.ends

* Black-box entry subcircuit for sky130_fd_sc_hd__buf_2 abstract view
.subckt sky130_fd_sc_hd__buf_2 A VGND VNB VPB VPWR X
.ends

* Black-box entry subcircuit for sky130_fd_sc_hd__dfxtp_1 abstract view
.subckt sky130_fd_sc_hd__dfxtp_1 CLK D VGND VNB VPB VPWR Q
.ends

* Black-box entry subcircuit for sky130_fd_sc_hd__o31a_1 abstract view
.subckt sky130_fd_sc_hd__o31a_1 A1 A2 A3 B1 VGND VNB VPB VPWR X
.ends

* Black-box entry subcircuit for sky130_fd_sc_hd__dfxtp_4 abstract view
.subckt sky130_fd_sc_hd__dfxtp_4 CLK D VGND VNB VPB VPWR Q
.ends

* Black-box entry subcircuit for sky130_fd_sc_hd__or3b_1 abstract view
.subckt sky130_fd_sc_hd__or3b_1 A B C_N VGND VNB VPB VPWR X
.ends

* Black-box entry subcircuit for sky130_fd_sc_hd__o211a_1 abstract view
.subckt sky130_fd_sc_hd__o211a_1 A1 A2 B1 C1 VGND VNB VPB VPWR X
.ends

* Black-box entry subcircuit for sky130_fd_sc_hd__and4_1 abstract view
.subckt sky130_fd_sc_hd__and4_1 A B C D VGND VNB VPB VPWR X
.ends

* Black-box entry subcircuit for sky130_fd_sc_hd__nor2_8 abstract view
.subckt sky130_fd_sc_hd__nor2_8 A B VGND VNB VPB VPWR Y
.ends

* Black-box entry subcircuit for sky130_fd_sc_hd__o31ai_1 abstract view
.subckt sky130_fd_sc_hd__o31ai_1 A1 A2 A3 B1 VGND VNB VPB VPWR Y
.ends

* Black-box entry subcircuit for sky130_fd_sc_hd__nand2_1 abstract view
.subckt sky130_fd_sc_hd__nand2_1 A B VGND VNB VPB VPWR Y
.ends

* Black-box entry subcircuit for sky130_fd_sc_hd__or2_1 abstract view
.subckt sky130_fd_sc_hd__or2_1 A B VGND VNB VPB VPWR X
.ends

* Black-box entry subcircuit for sky130_fd_sc_hd__a21boi_1 abstract view
.subckt sky130_fd_sc_hd__a21boi_1 A1 A2 B1_N VGND VNB VPB VPWR Y
.ends

* Black-box entry subcircuit for sky130_fd_sc_hd__a221o_1 abstract view
.subckt sky130_fd_sc_hd__a221o_1 A1 A2 B1 B2 C1 VGND VNB VPB VPWR X
.ends

* Black-box entry subcircuit for sky130_fd_sc_hd__nand3b_1 abstract view
.subckt sky130_fd_sc_hd__nand3b_1 A_N B C VGND VNB VPB VPWR Y
.ends

* Black-box entry subcircuit for sky130_fd_sc_hd__xor2_1 abstract view
.subckt sky130_fd_sc_hd__xor2_1 A B VGND VNB VPB VPWR X
.ends

* Black-box entry subcircuit for sky130_fd_sc_hd__or4_1 abstract view
.subckt sky130_fd_sc_hd__or4_1 A B C D VGND VNB VPB VPWR X
.ends

* Black-box entry subcircuit for sky130_fd_sc_hd__nor2_2 abstract view
.subckt sky130_fd_sc_hd__nor2_2 A B VGND VNB VPB VPWR Y
.ends

* Black-box entry subcircuit for sky130_fd_sc_hd__xor2_2 abstract view
.subckt sky130_fd_sc_hd__xor2_2 A B VGND VNB VPB VPWR X
.ends

* Black-box entry subcircuit for sky130_fd_sc_hd__o21a_1 abstract view
.subckt sky130_fd_sc_hd__o21a_1 A1 A2 B1 VGND VNB VPB VPWR X
.ends

* Black-box entry subcircuit for sky130_fd_sc_hd__nand2_2 abstract view
.subckt sky130_fd_sc_hd__nand2_2 A B VGND VNB VPB VPWR Y
.ends

* Black-box entry subcircuit for sky130_fd_sc_hd__or3_1 abstract view
.subckt sky130_fd_sc_hd__or3_1 A B C VGND VNB VPB VPWR X
.ends

* Black-box entry subcircuit for sky130_fd_sc_hd__o22a_1 abstract view
.subckt sky130_fd_sc_hd__o22a_1 A1 A2 B1 B2 VGND VNB VPB VPWR X
.ends

* Black-box entry subcircuit for sky130_fd_sc_hd__o221a_1 abstract view
.subckt sky130_fd_sc_hd__o221a_1 A1 A2 B1 B2 C1 VGND VNB VPB VPWR X
.ends

* Black-box entry subcircuit for sky130_fd_sc_hd__o2111a_1 abstract view
.subckt sky130_fd_sc_hd__o2111a_1 A1 A2 B1 C1 D1 VGND VNB VPB VPWR X
.ends

* Black-box entry subcircuit for sky130_fd_sc_hd__a21bo_1 abstract view
.subckt sky130_fd_sc_hd__a21bo_1 A1 A2 B1_N VGND VNB VPB VPWR X
.ends

* Black-box entry subcircuit for sky130_fd_sc_hd__or2b_1 abstract view
.subckt sky130_fd_sc_hd__or2b_1 A B_N VGND VNB VPB VPWR X
.ends

* Black-box entry subcircuit for sky130_fd_sc_hd__a211o_1 abstract view
.subckt sky130_fd_sc_hd__a211o_1 A1 A2 B1 C1 VGND VNB VPB VPWR X
.ends

* Black-box entry subcircuit for sky130_fd_sc_hd__and4bb_1 abstract view
.subckt sky130_fd_sc_hd__and4bb_1 A_N B_N C D VGND VNB VPB VPWR X
.ends

* Black-box entry subcircuit for sky130_fd_sc_hd__a311o_1 abstract view
.subckt sky130_fd_sc_hd__a311o_1 A1 A2 A3 B1 C1 VGND VNB VPB VPWR X
.ends

* Black-box entry subcircuit for sky130_fd_sc_hd__o21bai_1 abstract view
.subckt sky130_fd_sc_hd__o21bai_1 A1 A2 B1_N VGND VNB VPB VPWR Y
.ends

* Black-box entry subcircuit for sky130_fd_sc_hd__a21o_2 abstract view
.subckt sky130_fd_sc_hd__a21o_2 A1 A2 B1 VGND VNB VPB VPWR X
.ends

* Black-box entry subcircuit for sky130_fd_sc_hd__nor3_1 abstract view
.subckt sky130_fd_sc_hd__nor3_1 A B C VGND VNB VPB VPWR Y
.ends

* Black-box entry subcircuit for sky130_fd_sc_hd__clkbuf_16 abstract view
.subckt sky130_fd_sc_hd__clkbuf_16 A VGND VNB VPB VPWR X
.ends

* Black-box entry subcircuit for sky130_fd_sc_hd__a41o_1 abstract view
.subckt sky130_fd_sc_hd__a41o_1 A1 A2 A3 A4 B1 VGND VNB VPB VPWR X
.ends

* Black-box entry subcircuit for sky130_fd_sc_hd__a211o_2 abstract view
.subckt sky130_fd_sc_hd__a211o_2 A1 A2 B1 C1 VGND VNB VPB VPWR X
.ends

* Black-box entry subcircuit for sky130_fd_sc_hd__o41a_1 abstract view
.subckt sky130_fd_sc_hd__o41a_1 A1 A2 A3 A4 B1 VGND VNB VPB VPWR X
.ends

* Black-box entry subcircuit for sky130_fd_sc_hd__o32a_1 abstract view
.subckt sky130_fd_sc_hd__o32a_1 A1 A2 A3 B1 B2 VGND VNB VPB VPWR X
.ends

* Black-box entry subcircuit for sky130_fd_sc_hd__a311o_2 abstract view
.subckt sky130_fd_sc_hd__a311o_2 A1 A2 A3 B1 C1 VGND VNB VPB VPWR X
.ends

* Black-box entry subcircuit for sky130_fd_sc_hd__a32o_1 abstract view
.subckt sky130_fd_sc_hd__a32o_1 A1 A2 A3 B1 B2 VGND VNB VPB VPWR X
.ends

* Black-box entry subcircuit for sky130_fd_sc_hd__a22o_1 abstract view
.subckt sky130_fd_sc_hd__a22o_1 A1 A2 B1 B2 VGND VNB VPB VPWR X
.ends

* Black-box entry subcircuit for sky130_fd_sc_hd__inv_2 abstract view
.subckt sky130_fd_sc_hd__inv_2 A VGND VNB VPB VPWR Y
.ends

* Black-box entry subcircuit for sky130_fd_sc_hd__clkbuf_2 abstract view
.subckt sky130_fd_sc_hd__clkbuf_2 A VGND VNB VPB VPWR X
.ends

* Black-box entry subcircuit for sky130_fd_sc_hd__a21oi_2 abstract view
.subckt sky130_fd_sc_hd__a21oi_2 A1 A2 B1 VGND VNB VPB VPWR Y
.ends

* Black-box entry subcircuit for sky130_fd_sc_hd__nand3b_2 abstract view
.subckt sky130_fd_sc_hd__nand3b_2 A_N B C VGND VNB VPB VPWR Y
.ends

* Black-box entry subcircuit for sky130_fd_sc_hd__dlymetal6s2s_1 abstract view
.subckt sky130_fd_sc_hd__dlymetal6s2s_1 A VGND VNB VPB VPWR X
.ends

* Black-box entry subcircuit for sky130_fd_sc_hd__a2111o_1 abstract view
.subckt sky130_fd_sc_hd__a2111o_1 A1 A2 B1 C1 D1 VGND VNB VPB VPWR X
.ends

* Black-box entry subcircuit for sky130_fd_sc_hd__clkbuf_4 abstract view
.subckt sky130_fd_sc_hd__clkbuf_4 A VGND VNB VPB VPWR X
.ends

* Black-box entry subcircuit for sky130_fd_sc_hd__inv_4 abstract view
.subckt sky130_fd_sc_hd__inv_4 A VGND VNB VPB VPWR Y
.ends

* Black-box entry subcircuit for sky130_fd_sc_hd__clkbuf_1 abstract view
.subckt sky130_fd_sc_hd__clkbuf_1 A VGND VNB VPB VPWR X
.ends

* Black-box entry subcircuit for sky130_fd_sc_hd__buf_4 abstract view
.subckt sky130_fd_sc_hd__buf_4 A VGND VNB VPB VPWR X
.ends

* Black-box entry subcircuit for sky130_fd_sc_hd__nand2b_1 abstract view
.subckt sky130_fd_sc_hd__nand2b_1 A_N B VGND VNB VPB VPWR Y
.ends

* Black-box entry subcircuit for sky130_fd_sc_hd__nand2_8 abstract view
.subckt sky130_fd_sc_hd__nand2_8 A B VGND VNB VPB VPWR Y
.ends

* Black-box entry subcircuit for sky130_fd_sc_hd__clkinv_2 abstract view
.subckt sky130_fd_sc_hd__clkinv_2 A VGND VNB VPB VPWR Y
.ends

* Black-box entry subcircuit for sky130_fd_sc_hd__a311oi_2 abstract view
.subckt sky130_fd_sc_hd__a311oi_2 A1 A2 A3 B1 C1 VGND VNB VPB VPWR Y
.ends

* Black-box entry subcircuit for sky130_fd_sc_hd__buf_8 abstract view
.subckt sky130_fd_sc_hd__buf_8 A VGND VNB VPB VPWR X
.ends

* Black-box entry subcircuit for sky130_fd_sc_hd__o21ba_1 abstract view
.subckt sky130_fd_sc_hd__o21ba_1 A1 A2 B1_N VGND VNB VPB VPWR X
.ends

* Black-box entry subcircuit for sky130_fd_sc_hd__o211ai_2 abstract view
.subckt sky130_fd_sc_hd__o211ai_2 A1 A2 B1 C1 VGND VNB VPB VPWR Y
.ends

* Black-box entry subcircuit for sky130_fd_sc_hd__and3b_1 abstract view
.subckt sky130_fd_sc_hd__and3b_1 A_N B C VGND VNB VPB VPWR X
.ends

* Black-box entry subcircuit for sky130_fd_sc_hd__xnor2_2 abstract view
.subckt sky130_fd_sc_hd__xnor2_2 A B VGND VNB VPB VPWR Y
.ends

* Black-box entry subcircuit for sky130_fd_sc_hd__and2b_1 abstract view
.subckt sky130_fd_sc_hd__and2b_1 A_N B VGND VNB VPB VPWR X
.ends

* Black-box entry subcircuit for sky130_fd_sc_hd__o211a_2 abstract view
.subckt sky130_fd_sc_hd__o211a_2 A1 A2 B1 C1 VGND VNB VPB VPWR X
.ends

* Black-box entry subcircuit for sky130_fd_sc_hd__a22oi_2 abstract view
.subckt sky130_fd_sc_hd__a22oi_2 A1 A2 B1 B2 VGND VNB VPB VPWR Y
.ends

* Black-box entry subcircuit for sky130_fd_sc_hd__o21ai_2 abstract view
.subckt sky130_fd_sc_hd__o21ai_2 A1 A2 B1 VGND VNB VPB VPWR Y
.ends

* Black-box entry subcircuit for sky130_fd_sc_hd__a31oi_4 abstract view
.subckt sky130_fd_sc_hd__a31oi_4 A1 A2 A3 B1 VGND VNB VPB VPWR Y
.ends

* Black-box entry subcircuit for sky130_fd_sc_hd__a2bb2o_1 abstract view
.subckt sky130_fd_sc_hd__a2bb2o_1 A1_N A2_N B1 B2 VGND VNB VPB VPWR X
.ends

* Black-box entry subcircuit for sky130_fd_sc_hd__buf_6 abstract view
.subckt sky130_fd_sc_hd__buf_6 A VGND VNB VPB VPWR X
.ends

* Black-box entry subcircuit for sky130_fd_sc_hd__nand4_1 abstract view
.subckt sky130_fd_sc_hd__nand4_1 A B C D VGND VNB VPB VPWR Y
.ends

* Black-box entry subcircuit for sky130_fd_sc_hd__nand2_4 abstract view
.subckt sky130_fd_sc_hd__nand2_4 A B VGND VNB VPB VPWR Y
.ends

* Black-box entry subcircuit for sky130_fd_sc_hd__clkinv_4 abstract view
.subckt sky130_fd_sc_hd__clkinv_4 A VGND VNB VPB VPWR Y
.ends

.subckt pc alu_branch branch clk immediate[0] immediate[10] immediate[11] immediate[12]
+ immediate[13] immediate[14] immediate[15] immediate[16] immediate[17] immediate[18]
+ immediate[19] immediate[1] immediate[20] immediate[21] immediate[22] immediate[23]
+ immediate[24] immediate[25] immediate[26] immediate[27] immediate[28] immediate[29]
+ immediate[2] immediate[30] immediate[31] immediate[3] immediate[4] immediate[5]
+ immediate[6] immediate[7] immediate[8] immediate[9] jump_jal jump_jalr pc_out[0]
+ pc_out[10] pc_out[11] pc_out[12] pc_out[13] pc_out[14] pc_out[15] pc_out[16] pc_out[17]
+ pc_out[18] pc_out[19] pc_out[1] pc_out[20] pc_out[21] pc_out[22] pc_out[23] pc_out[24]
+ pc_out[25] pc_out[26] pc_out[27] pc_out[28] pc_out[29] pc_out[2] pc_out[30] pc_out[31]
+ pc_out[3] pc_out[4] pc_out[5] pc_out[6] pc_out[7] pc_out[8] pc_out[9] rs1_data[0]
+ rs1_data[10] rs1_data[11] rs1_data[12] rs1_data[13] rs1_data[14] rs1_data[15] rs1_data[16]
+ rs1_data[17] rs1_data[18] rs1_data[19] rs1_data[1] rs1_data[20] rs1_data[21] rs1_data[22]
+ rs1_data[23] rs1_data[24] rs1_data[25] rs1_data[26] rs1_data[27] rs1_data[28] rs1_data[29]
+ rs1_data[2] rs1_data[30] rs1_data[31] rs1_data[3] rs1_data[4] rs1_data[5] rs1_data[6]
+ rs1_data[7] rs1_data[8] rs1_data[9] rst_n vccd1 vssd1
XTAP_199 vssd1 vccd1 sky130_fd_sc_hd__tapvpwrvgnd_1
XANTENNA__1343__B _1364_/B vssd1 vssd1 vccd1 vccd1 sky130_fd_sc_hd__diode_2
XFILLER_67_553 vssd1 vssd1 vccd1 vccd1 sky130_fd_sc_hd__decap_6
XFILLER_82_501 vssd1 vccd1 vccd1 vssd1 sky130_ef_sc_hd__decap_12
XANTENNA__1151__B1 _1471_/Q vssd1 vssd1 vccd1 vccd1 sky130_fd_sc_hd__diode_2
XFILLER_27_417 vssd1 vccd1 vccd1 vssd1 sky130_ef_sc_hd__decap_12
XFILLER_82_545 vssd1 vccd1 vccd1 vssd1 sky130_ef_sc_hd__decap_12
XFILLER_54_214 vssd1 vssd1 vccd1 vccd1 sky130_fd_sc_hd__decap_4
XFILLER_35_461 vssd1 vccd1 vccd1 vssd1 sky130_ef_sc_hd__decap_12
XFILLER_22_133 vssd1 vssd1 vccd1 vccd1 sky130_fd_sc_hd__decap_6
XFILLER_52_29 vssd1 vccd1 vccd1 vssd1 sky130_ef_sc_hd__decap_12
XFILLER_50_475 vssd1 vssd1 vccd1 vccd1 sky130_fd_sc_hd__fill_1
XFILLER_22_177 vssd1 vccd1 vccd1 vssd1 sky130_ef_sc_hd__decap_12
XFILLER_89_111 vssd1 vssd1 vccd1 vccd1 sky130_fd_sc_hd__fill_1
XFILLER_77_15 vssd1 vccd1 vccd1 vssd1 sky130_ef_sc_hd__decap_12
XFILLER_58_531 vssd1 vssd1 vccd1 vccd1 sky130_fd_sc_hd__fill_1
XFILLER_58_575 vssd1 vssd1 vccd1 vccd1 sky130_fd_sc_hd__fill_1
XFILLER_85_372 vssd1 vssd1 vccd1 vccd1 sky130_fd_sc_hd__decap_4
XFILLER_45_225 vssd1 vssd1 vccd1 vccd1 sky130_fd_sc_hd__decap_3
XFILLER_93_69 vssd1 vccd1 vccd1 vssd1 sky130_ef_sc_hd__decap_12
XFILLER_26_41 vssd1 vccd1 vccd1 vssd1 sky130_ef_sc_hd__decap_12
XFILLER_45_247 vssd1 vssd1 vccd1 vccd1 sky130_fd_sc_hd__decap_4
XFILLER_13_111 vssd1 vssd1 vccd1 vccd1 sky130_fd_sc_hd__fill_1
XFILLER_26_85 vssd1 vccd1 vccd1 vssd1 sky130_ef_sc_hd__decap_12
XFILLER_9_137 vssd1 vccd1 vccd1 vssd1 sky130_ef_sc_hd__decap_12
XFILLER_41_497 vssd1 vssd1 vccd1 vccd1 sky130_fd_sc_hd__decap_6
XANTENNA__1444__A _1444_/A vssd1 vssd1 vccd1 vccd1 sky130_fd_sc_hd__diode_2
X_1270_ _1476_/Q _1270_/B vssd1 vssd1 vccd1 vccd1 _1295_/D sky130_fd_sc_hd__xnor2_1
XFILLER_95_169 vssd1 vccd1 vccd1 vssd1 sky130_ef_sc_hd__decap_12
XFILLER_49_553 vssd1 vssd1 vccd1 vccd1 sky130_fd_sc_hd__decap_6
XFILLER_64_501 vssd1 vccd1 vccd1 vssd1 sky130_ef_sc_hd__decap_12
XFILLER_67_81 vssd1 vccd1 vccd1 vssd1 sky130_ef_sc_hd__decap_12
XFILLER_91_331 vssd1 vssd1 vccd1 vccd1 sky130_fd_sc_hd__decap_4
XFILLER_64_545 vssd1 vccd1 vccd1 vssd1 sky130_ef_sc_hd__decap_12
XFILLER_17_461 vssd1 vccd1 vccd1 vssd1 sky130_ef_sc_hd__decap_12
XFILLER_51_217 vssd1 vssd1 vccd1 vccd1 sky130_fd_sc_hd__decap_6
XFILLER_51_228 vssd1 vssd1 vccd1 vccd1 sky130_fd_sc_hd__decap_8
XFILLER_32_475 vssd1 vssd1 vccd1 vccd1 sky130_fd_sc_hd__fill_1
X_0985_ _0985_/A _0985_/B vssd1 vssd1 vccd1 vccd1 _0991_/B sky130_fd_sc_hd__xnor2_1
XFILLER_59_306 vssd1 vssd1 vccd1 vccd1 sky130_fd_sc_hd__decap_4
XFILLER_59_317 vssd1 vssd1 vccd1 vccd1 sky130_fd_sc_hd__decap_4
X_1468_ _1470_/CLK _1468_/D vssd1 vssd1 vccd1 vccd1 _1468_/Q sky130_fd_sc_hd__dfxtp_2
X_1399_ _1480_/Q _1367_/B _1350_/A vssd1 vssd1 vccd1 vccd1 _1399_/X sky130_fd_sc_hd__a21o_1
XFILLER_27_225 vssd1 vccd1 vccd1 vssd1 sky130_ef_sc_hd__decap_12
XFILLER_82_342 vssd1 vssd1 vccd1 vccd1 sky130_fd_sc_hd__decap_4
XTAP_1129 vssd1 vccd1 sky130_fd_sc_hd__tapvpwrvgnd_1
XTAP_1118 vssd1 vccd1 sky130_fd_sc_hd__tapvpwrvgnd_1
XTAP_1107 vssd1 vccd1 sky130_fd_sc_hd__tapvpwrvgnd_1
XFILLER_63_39 vssd1 vccd1 vccd1 vssd1 sky130_ef_sc_hd__decap_12
XFILLER_82_397 vssd1 vccd1 vccd1 vssd1 sky130_ef_sc_hd__decap_12
XFILLER_42_239 vssd1 vccd1 vccd1 vssd1 sky130_ef_sc_hd__decap_12
XFILLER_23_497 vssd1 vssd1 vccd1 vccd1 sky130_fd_sc_hd__decap_6
XFILLER_12_65 vssd1 vccd1 vccd1 vssd1 sky130_ef_sc_hd__decap_12
XFILLER_88_25 vssd1 vssd1 vccd1 vccd1 sky130_fd_sc_hd__decap_3
XFILLER_2_357 vssd1 vssd1 vccd1 vccd1 sky130_fd_sc_hd__decap_6
XANTENNA__1264__A _1274_/A vssd1 vssd1 vccd1 vccd1 sky130_fd_sc_hd__diode_2
XFILLER_77_147 vssd1 vssd1 vccd1 vccd1 sky130_fd_sc_hd__decap_4
XFILLER_77_125 vssd1 vccd1 vccd1 vssd1 sky130_ef_sc_hd__decap_12
XFILLER_46_501 vssd1 vccd1 vccd1 vssd1 sky130_ef_sc_hd__decap_12
XFILLER_92_139 vssd1 vssd1 vccd1 vccd1 sky130_fd_sc_hd__fill_1
XANTENNA__1115__B1 _0918_/A vssd1 vssd1 vccd1 vccd1 sky130_fd_sc_hd__diode_2
XFILLER_58_372 vssd1 vssd1 vccd1 vccd1 sky130_fd_sc_hd__decap_4
XFILLER_73_353 vssd1 vssd1 vccd1 vccd1 sky130_fd_sc_hd__decap_4
XFILLER_73_331 vssd1 vssd1 vccd1 vccd1 sky130_fd_sc_hd__decap_4
XFILLER_46_545 vssd1 vccd1 vccd1 vssd1 sky130_ef_sc_hd__decap_12
XFILLER_73_364 vssd1 vssd1 vccd1 vccd1 sky130_fd_sc_hd__decap_4
XFILLER_33_217 vssd1 vssd1 vccd1 vccd1 sky130_fd_sc_hd__decap_6
XFILLER_61_559 vssd1 vssd1 vccd1 vccd1 sky130_fd_sc_hd__fill_1
XFILLER_14_475 vssd1 vssd1 vccd1 vccd1 sky130_fd_sc_hd__fill_1
XFILLER_41_272 vssd1 vssd1 vccd1 vccd1 sky130_fd_sc_hd__decap_8
XFILLER_41_283 vssd1 vssd1 vccd1 vccd1 sky130_fd_sc_hd__decap_4
X_0770_ _0770_/A _0770_/B vssd1 vssd1 vccd1 vccd1 _0770_/Y sky130_fd_sc_hd__xnor2_1
XANTENNA__1051__C1 _1465_/Q vssd1 vssd1 vccd1 vccd1 sky130_fd_sc_hd__diode_2
XFILLER_96_401 vssd1 vssd1 vccd1 vccd1 sky130_fd_sc_hd__fill_2
XANTENNA__1174__A _1470_/Q vssd1 vssd1 vccd1 vccd1 sky130_fd_sc_hd__diode_2
XFILLER_96_434 vssd1 vccd1 vccd1 vssd1 sky130_ef_sc_hd__decap_12
X_1322_ _1323_/A _1323_/B vssd1 vssd1 vccd1 vccd1 _1347_/A sky130_fd_sc_hd__and2_1
XFILLER_96_489 vssd1 vssd1 vccd1 vccd1 sky130_fd_sc_hd__decap_8
X_1253_ _1295_/A _1295_/B vssd1 vssd1 vccd1 vccd1 _1260_/A sky130_fd_sc_hd__nor2_1
X_1184_ _1086_/B _1180_/X _1183_/X vssd1 vssd1 vccd1 vccd1 _1185_/B sky130_fd_sc_hd__o21ai_1
XFILLER_64_353 vssd1 vssd1 vccd1 vccd1 sky130_fd_sc_hd__decap_4
XFILLER_91_161 vssd1 vssd1 vccd1 vccd1 sky130_fd_sc_hd__decap_6
XFILLER_64_386 vssd1 vssd1 vccd1 vccd1 sky130_fd_sc_hd__decap_4
XFILLER_20_401 vssd1 vccd1 vccd1 vssd1 sky130_ef_sc_hd__decap_12
XFILLER_20_445 vssd1 vccd1 vccd1 vssd1 sky130_ef_sc_hd__decap_12
X_0968_ _0939_/A _0968_/B _0968_/C _0968_/D vssd1 vssd1 vccd1 vccd1 _0968_/X sky130_fd_sc_hd__and4b_1
XFILLER_20_489 vssd1 vccd1 vccd1 vssd1 sky130_ef_sc_hd__decap_12
X_0899_ _0899_/A _0936_/A vssd1 vssd1 vccd1 vccd1 _0967_/B sky130_fd_sc_hd__nor2_1
XFILLER_59_125 vssd1 vccd1 vccd1 vssd1 sky130_ef_sc_hd__decap_12
XFILLER_47_309 vssd1 vssd1 vccd1 vccd1 sky130_fd_sc_hd__decap_4
XFILLER_59_158 vssd1 vssd1 vccd1 vccd1 sky130_fd_sc_hd__decap_4
XFILLER_28_501 vssd1 vccd1 vccd1 vssd1 sky130_ef_sc_hd__decap_12
XFILLER_74_27 vssd1 vssd1 vccd1 vccd1 sky130_fd_sc_hd__fill_1
XFILLER_28_545 vssd1 vccd1 vccd1 vssd1 sky130_ef_sc_hd__decap_12
XFILLER_15_217 vssd1 vssd1 vccd1 vccd1 sky130_fd_sc_hd__decap_6
XFILLER_70_334 vssd1 vssd1 vccd1 vccd1 sky130_fd_sc_hd__decap_4
XFILLER_43_559 vssd1 vssd1 vccd1 vccd1 sky130_fd_sc_hd__fill_1
XFILLER_90_15 vssd1 vccd1 vccd1 vssd1 sky130_ef_sc_hd__decap_12
XFILLER_30_209 vssd1 vccd1 vccd1 vssd1 sky130_ef_sc_hd__decap_12
XFILLER_23_261 vssd1 vccd1 vccd1 vssd1 sky130_ef_sc_hd__decap_12
XFILLER_7_405 vssd1 vccd1 vccd1 vssd1 sky130_ef_sc_hd__decap_12
XFILLER_7_449 vssd1 vccd1 vccd1 vssd1 sky130_ef_sc_hd__decap_12
XFILLER_2_121 vssd1 vccd1 vccd1 vssd1 sky130_ef_sc_hd__decap_12
XANTENNA_input55_A rs1_data[26] vssd1 vssd1 vccd1 vccd1 sky130_fd_sc_hd__diode_2
XFILLER_78_401 vssd1 vssd1 vccd1 vccd1 sky130_fd_sc_hd__decap_4
XFILLER_2_165 vssd1 vccd1 vccd1 vssd1 sky130_ef_sc_hd__decap_12
XFILLER_78_445 vssd1 vccd1 vccd1 vssd1 sky130_ef_sc_hd__decap_12
XFILLER_38_309 vssd1 vccd1 vccd1 vssd1 sky130_ef_sc_hd__decap_12
XFILLER_78_489 vssd1 vccd1 vccd1 vssd1 sky130_ef_sc_hd__decap_12
XFILLER_48_83 vssd1 vssd1 vccd1 vccd1 sky130_fd_sc_hd__fill_1
XFILLER_0_35 vssd1 vssd1 vccd1 vccd1 sky130_fd_sc_hd__decap_4
XFILLER_0_13 vssd1 vssd1 vccd1 vccd1 sky130_fd_sc_hd__decap_4
XFILLER_46_331 vssd1 vssd1 vccd1 vccd1 sky130_fd_sc_hd__decap_4
XFILLER_80_109 vssd1 vccd1 vccd1 vssd1 sky130_ef_sc_hd__decap_12
XFILLER_0_57 vssd1 vssd1 vccd1 vccd1 sky130_fd_sc_hd__fill_2
XFILLER_46_386 vssd1 vssd1 vccd1 vccd1 sky130_fd_sc_hd__decap_4
XFILLER_61_345 vssd1 vssd1 vccd1 vccd1 sky130_fd_sc_hd__decap_4
XFILLER_9_11 vssd1 vccd1 vccd1 vssd1 sky130_ef_sc_hd__decap_12
XFILLER_9_55 vssd1 vssd1 vccd1 vccd1 sky130_fd_sc_hd__fill_1
X_0822_ _0822_/A _0822_/B _0822_/C vssd1 vssd1 vccd1 vccd1 _0822_/Y sky130_fd_sc_hd__nand3_1
X_0753_ _0748_/X _0776_/A _0744_/Y _1321_/A vssd1 vssd1 vccd1 vccd1 _0753_/X sky130_fd_sc_hd__a31o_1
XFILLER_88_209 vssd1 vssd1 vccd1 vccd1 sky130_fd_sc_hd__decap_4
XFILLER_69_412 vssd1 vssd1 vccd1 vccd1 sky130_fd_sc_hd__decap_4
XFILLER_96_253 vssd1 vssd1 vccd1 vccd1 sky130_fd_sc_hd__decap_3
X_1305_ _1305_/A _1305_/B vssd1 vssd1 vccd1 vccd1 _1351_/A sky130_fd_sc_hd__nor2_1
XFILLER_96_286 vssd1 vssd1 vccd1 vccd1 sky130_fd_sc_hd__decap_4
XFILLER_49_180 vssd1 vssd1 vccd1 vccd1 sky130_fd_sc_hd__decap_4
XFILLER_56_139 vssd1 vssd1 vccd1 vccd1 sky130_fd_sc_hd__fill_1
X_1236_ _1449_/A _1217_/Y _1218_/X _1235_/Y vssd1 vssd1 vccd1 vccd1 _1237_/B sky130_fd_sc_hd__a31oi_1
X_1167_ _1167_/A _1167_/B _1221_/A vssd1 vssd1 vccd1 vccd1 _1167_/X sky130_fd_sc_hd__and3_1
XFILLER_64_161 vssd1 vssd1 vccd1 vccd1 sky130_fd_sc_hd__fill_1
XFILLER_25_559 vssd1 vssd1 vccd1 vccd1 sky130_fd_sc_hd__fill_1
XFILLER_52_334 vssd1 vssd1 vccd1 vccd1 sky130_fd_sc_hd__fill_1
XFILLER_64_183 vssd1 vssd1 vccd1 vccd1 sky130_fd_sc_hd__decap_4
X_1098_ _1098_/A _1098_/B _1160_/B vssd1 vssd1 vccd1 vccd1 _1100_/B sky130_fd_sc_hd__nand3_1
XFILLER_12_209 vssd1 vccd1 vccd1 vssd1 sky130_ef_sc_hd__decap_12
XFILLER_52_367 vssd1 vssd1 vccd1 vccd1 sky130_fd_sc_hd__decap_6
XANTENNA__1079__A _1080_/A vssd1 vssd1 vccd1 vccd1 sky130_fd_sc_hd__diode_2
XFILLER_20_253 vssd1 vccd1 vccd1 vssd1 sky130_ef_sc_hd__decap_12
XFILLER_60_29 vssd1 vccd1 vccd1 vssd1 sky130_ef_sc_hd__decap_12
XFILLER_4_419 vssd1 vssd1 vccd1 vccd1 sky130_fd_sc_hd__fill_1
XANTENNA__1030__A2 _1465_/Q vssd1 vssd1 vccd1 vccd1 sky130_fd_sc_hd__diode_2
XFILLER_69_27 vssd1 vccd1 vccd1 vssd1 sky130_ef_sc_hd__decap_12
XFILLER_79_209 vssd1 vssd1 vccd1 vccd1 sky130_fd_sc_hd__decap_4
XFILLER_87_220 vssd1 vssd1 vccd1 vccd1 sky130_fd_sc_hd__decap_4
XFILLER_85_15 vssd1 vccd1 vccd1 vssd1 sky130_ef_sc_hd__decap_12
XFILLER_75_437 vssd1 vssd1 vccd1 vccd1 sky130_fd_sc_hd__decap_8
XFILLER_18_53 vssd1 vccd1 vccd1 vssd1 sky130_ef_sc_hd__decap_12
XFILLER_55_161 vssd1 vssd1 vccd1 vccd1 sky130_fd_sc_hd__decap_6
XFILLER_62_109 vssd1 vccd1 vccd1 vssd1 sky130_ef_sc_hd__decap_12
XFILLER_18_97 vssd1 vccd1 vccd1 vssd1 sky130_ef_sc_hd__decap_12
XFILLER_70_153 vssd1 vssd1 vccd1 vccd1 sky130_fd_sc_hd__decap_3
XFILLER_43_345 vssd1 vssd1 vccd1 vccd1 sky130_fd_sc_hd__decap_4
XFILLER_70_164 vssd1 vssd1 vccd1 vccd1 sky130_fd_sc_hd__decap_4
XFILLER_31_529 vssd1 vccd1 vccd1 vssd1 sky130_ef_sc_hd__decap_12
XFILLER_34_41 vssd1 vccd1 vccd1 vssd1 sky130_ef_sc_hd__decap_12
XFILLER_70_197 vssd1 vssd1 vccd1 vccd1 sky130_fd_sc_hd__fill_2
XFILLER_34_85 vssd1 vccd1 vccd1 vssd1 sky130_ef_sc_hd__decap_12
XFILLER_7_279 vssd1 vssd1 vccd1 vccd1 sky130_fd_sc_hd__fill_1
XFILLER_3_441 vssd1 vssd1 vccd1 vccd1 sky130_fd_sc_hd__decap_6
XTAP_507 vssd1 vccd1 sky130_fd_sc_hd__tapvpwrvgnd_1
XFILLER_3_485 vssd1 vccd1 vccd1 vssd1 sky130_ef_sc_hd__decap_12
XTAP_518 vssd1 vccd1 sky130_fd_sc_hd__tapvpwrvgnd_1
XTAP_529 vssd1 vccd1 sky130_fd_sc_hd__tapvpwrvgnd_1
XFILLER_59_93 vssd1 vccd1 vccd1 vssd1 sky130_ef_sc_hd__decap_12
XFILLER_93_245 vssd1 vssd1 vccd1 vccd1 sky130_fd_sc_hd__fill_2
XFILLER_93_223 vssd1 vssd1 vccd1 vccd1 sky130_fd_sc_hd__fill_1
XFILLER_38_139 vssd1 vssd1 vccd1 vccd1 sky130_fd_sc_hd__fill_1
XFILLER_66_459 vssd1 vccd1 vccd1 vssd1 sky130_ef_sc_hd__decap_12
XFILLER_75_81 vssd1 vccd1 vccd1 vssd1 sky130_ef_sc_hd__decap_12
X_1021_ _0972_/A _0972_/B _1019_/Y _1020_/Y vssd1 vssd1 vccd1 vccd1 _1022_/B sky130_fd_sc_hd__a31o_1
XFILLER_34_301 vssd1 vssd1 vccd1 vccd1 sky130_fd_sc_hd__decap_6
XFILLER_34_345 vssd1 vccd1 vccd1 vssd1 sky130_ef_sc_hd__decap_12
XFILLER_34_389 vssd1 vccd1 vccd1 vssd1 sky130_ef_sc_hd__decap_12
XFILLER_61_164 vssd1 vssd1 vccd1 vccd1 sky130_fd_sc_hd__decap_4
X_0805_ _1111_/A _0794_/X _0804_/X vssd1 vssd1 vccd1 vccd1 _1456_/D sky130_fd_sc_hd__a21oi_1
X_0736_ _0736_/A _0736_/B vssd1 vssd1 vccd1 vccd1 _0737_/B sky130_fd_sc_hd__nor2_1
XFILLER_89_529 vssd1 vccd1 vccd1 vssd1 sky130_ef_sc_hd__decap_12
XFILLER_69_220 vssd1 vssd1 vccd1 vccd1 sky130_fd_sc_hd__decap_4
XFILLER_69_242 vssd1 vssd1 vccd1 vccd1 sky130_fd_sc_hd__decap_4
XFILLER_69_286 vssd1 vssd1 vccd1 vccd1 sky130_fd_sc_hd__decap_4
XANTENNA__1362__A _1377_/A vssd1 vssd1 vccd1 vccd1 sky130_fd_sc_hd__diode_2
XFILLER_84_267 vssd1 vssd1 vccd1 vccd1 sky130_fd_sc_hd__decap_4
XFILLER_72_429 vssd1 vssd1 vccd1 vccd1 sky130_fd_sc_hd__decap_4
XFILLER_72_407 vssd1 vssd1 vccd1 vccd1 sky130_fd_sc_hd__decap_4
XFILLER_44_109 vssd1 vccd1 vccd1 vssd1 sky130_ef_sc_hd__decap_12
X_1219_ _1473_/Q _1220_/C _1474_/Q vssd1 vssd1 vccd1 vccd1 _1219_/Y sky130_fd_sc_hd__a21oi_1
XFILLER_37_161 vssd1 vssd1 vccd1 vccd1 sky130_fd_sc_hd__decap_6
XFILLER_52_153 vssd1 vccd1 vccd1 vssd1 sky130_ef_sc_hd__decap_12
XFILLER_13_529 vssd1 vccd1 vccd1 vssd1 sky130_ef_sc_hd__decap_12
XFILLER_52_197 vssd1 vssd1 vccd1 vccd1 sky130_fd_sc_hd__fill_1
XFILLER_20_65 vssd1 vccd1 vccd1 vssd1 sky130_ef_sc_hd__decap_12
XFILLER_96_69 vssd1 vssd1 vccd1 vccd1 sky130_fd_sc_hd__decap_4
XFILLER_0_433 vssd1 vssd1 vccd1 vccd1 sky130_fd_sc_hd__decap_4
XFILLER_0_477 vssd1 vssd1 vccd1 vccd1 sky130_fd_sc_hd__fill_2
XANTENNA_input18_A immediate[23] vssd1 vssd1 vccd1 vccd1 sky130_fd_sc_hd__diode_2
XFILLER_16_301 vssd1 vssd1 vccd1 vccd1 sky130_fd_sc_hd__decap_6
XFILLER_90_259 vssd1 vssd1 vccd1 vccd1 sky130_fd_sc_hd__decap_6
XFILLER_71_451 vssd1 vccd1 vccd1 vssd1 sky130_ef_sc_hd__decap_12
XFILLER_16_345 vssd1 vccd1 vccd1 vssd1 sky130_ef_sc_hd__decap_12
XFILLER_45_51 vssd1 vssd1 vccd1 vccd1 sky130_fd_sc_hd__decap_4
XFILLER_16_389 vssd1 vccd1 vccd1 vssd1 sky130_ef_sc_hd__decap_12
XFILLER_31_337 vssd1 vccd1 vccd1 vssd1 sky130_ef_sc_hd__decap_12
XFILLER_8_533 vssd1 vccd1 vccd1 vssd1 sky130_ef_sc_hd__decap_12
XANTENNA_output86_A _1476_/Q vssd1 vssd1 vccd1 vccd1 sky130_fd_sc_hd__diode_2
XTAP_315 vssd1 vccd1 sky130_fd_sc_hd__tapvpwrvgnd_1
XTAP_304 vssd1 vccd1 sky130_fd_sc_hd__tapvpwrvgnd_1
XTAP_348 vssd1 vccd1 sky130_fd_sc_hd__tapvpwrvgnd_1
XTAP_337 vssd1 vccd1 sky130_fd_sc_hd__tapvpwrvgnd_1
XTAP_326 vssd1 vccd1 sky130_fd_sc_hd__tapvpwrvgnd_1
XFILLER_3_293 vssd1 vccd1 vccd1 vssd1 sky130_ef_sc_hd__decap_12
XFILLER_79_573 vssd1 vssd1 vccd1 vccd1 sky130_fd_sc_hd__decap_3
XTAP_359 vssd1 vccd1 sky130_fd_sc_hd__tapvpwrvgnd_1
XFILLER_13_3 vssd1 vccd1 vccd1 vssd1 sky130_ef_sc_hd__decap_12
XFILLER_66_245 vssd1 vssd1 vccd1 vccd1 sky130_fd_sc_hd__fill_1
XFILLER_26_109 vssd1 vccd1 vccd1 vssd1 sky130_ef_sc_hd__decap_12
XFILLER_54_407 vssd1 vccd1 vccd1 vssd1 sky130_ef_sc_hd__decap_12
XFILLER_19_161 vssd1 vssd1 vccd1 vccd1 sky130_fd_sc_hd__decap_6
X_1004_ _1001_/A _0953_/Y _1001_/B _1003_/Y _0975_/B vssd1 vssd1 vccd1 vccd1 _1004_/X
+ sky130_fd_sc_hd__o311a_1
XFILLER_34_153 vssd1 vccd1 vccd1 vssd1 sky130_ef_sc_hd__decap_12
XFILLER_62_473 vssd1 vssd1 vccd1 vccd1 sky130_fd_sc_hd__decap_3
XFILLER_34_197 vssd1 vccd1 vccd1 vssd1 sky130_ef_sc_hd__decap_12
XANTENNA__0992__A1 _0991_/A vssd1 vssd1 vccd1 vccd1 sky130_fd_sc_hd__diode_2
XFILLER_57_201 vssd1 vssd1 vccd1 vccd1 sky130_fd_sc_hd__decap_4
XTAP_860 vssd1 vccd1 sky130_fd_sc_hd__tapvpwrvgnd_1
XTAP_871 vssd1 vccd1 sky130_fd_sc_hd__tapvpwrvgnd_1
XFILLER_57_245 vssd1 vssd1 vccd1 vccd1 sky130_fd_sc_hd__decap_4
XTAP_882 vssd1 vccd1 sky130_fd_sc_hd__tapvpwrvgnd_1
XTAP_893 vssd1 vccd1 sky130_fd_sc_hd__tapvpwrvgnd_1
XFILLER_45_429 vssd1 vccd1 vccd1 vssd1 sky130_ef_sc_hd__decap_12
XFILLER_82_27 vssd1 vssd1 vccd1 vccd1 sky130_fd_sc_hd__fill_1
XFILLER_53_473 vssd1 vccd1 vccd1 vssd1 sky130_ef_sc_hd__decap_12
XFILLER_15_43 vssd1 vccd1 vccd1 vssd1 sky130_ef_sc_hd__decap_12
XFILLER_13_337 vssd1 vccd1 vccd1 vssd1 sky130_ef_sc_hd__decap_12
XFILLER_40_189 vssd1 vssd1 vccd1 vccd1 sky130_fd_sc_hd__decap_6
XFILLER_5_503 vssd1 vssd1 vccd1 vccd1 sky130_fd_sc_hd__fill_1
XANTENNA__0983__A1 input5/X vssd1 vssd1 vccd1 vccd1 sky130_fd_sc_hd__diode_2
Xoutput75 _1466_/Q vssd1 vssd1 vccd1 vccd1 pc_out[14] sky130_fd_sc_hd__buf_2
Xoutput86 _1476_/Q vssd1 vssd1 vccd1 vccd1 pc_out[24] sky130_fd_sc_hd__buf_2
Xoutput97 _1457_/Q vssd1 vssd1 vccd1 vccd1 pc_out[5] sky130_fd_sc_hd__buf_2