*SPEF "ieee 1481-1999"
*DESIGN "control"
*DATE "11:11:11 Fri 11 11, 1111"
*VENDOR "OpenRCX"
*PROGRAM "Parallel Extraction"
*VERSION "1.0"
*DESIGN_FLOW "NAME_SCOPE LOCAL" "PIN_CAP NONE"
*DIVIDER /
*DELIMITER :
*BUS_DELIMITER []
*T_UNIT 1 NS
*C_UNIT 1 PF
*R_UNIT 1 OHM
*L_UNIT 1 HENRY

*NAME_MAP
*1 branch_output
*2 clk
*3 immediate_sel_output
*4 instruction_type[0]
*5 instruction_type[1]
*6 instruction_type[2]
*7 instruction_type[3]
*8 instruction_type[4]
*9 instruction_type[5]
*10 jump_jal_output
*11 jump_jalr_output
*12 mem_write_output
*13 opcode[0]
*14 opcode[1]
*15 opcode[2]
*16 opcode[3]
*17 opcode[4]
*18 opcode[5]
*19 opcode[6]
*20 reg_write_output
*21 rst_n
*24 _00_
*25 _01_
*26 _02_
*27 _03_
*28 _04_
*29 _05_
*30 _06_
*31 _07_
*32 _08_
*33 _09_
*34 _10_
*35 _11_
*36 _12_
*37 _13_
*38 net1
*39 net10
*40 net11
*41 net12
*42 net13
*43 net14
*44 net15
*45 net16
*46 net17
*47 net18
*48 net19
*49 net2
*50 net3
*51 net4
*52 net5
*53 net6
*54 net7
*55 net8
*56 net9
*57 ANTENNA__14__A
*58 ANTENNA__14__B
*59 ANTENNA__14__C
*60 ANTENNA__14__D
*61 ANTENNA__15__A_N
*62 ANTENNA__15__B
*63 ANTENNA__17__A
*64 ANTENNA__17__B
*65 ANTENNA__17__C
*66 ANTENNA__17__D
*67 ANTENNA__18__A_N
*68 ANTENNA__18__B
*69 ANTENNA__19__A
*70 ANTENNA__19__B
*71 ANTENNA__19__C
*72 ANTENNA__19__D
*73 ANTENNA__20__A_N
*74 ANTENNA__20__B
*75 ANTENNA__22__A
*76 ANTENNA__24__A_N
*77 ANTENNA__24__C
*78 ANTENNA__26__A
*79 ANTENNA__27__A1
*80 ANTENNA__27__C1
*81 ANTENNA__28__A_N
*82 ANTENNA__28__C
*83 ANTENNA__30__A_N
*84 ANTENNA__30__B
*85 ANTENNA__30__C
*86 ANTENNA__31__A_N
*87 ANTENNA__31__B
*88 ANTENNA__31__C
*89 ANTENNA__31__D
*90 ANTENNA_input10_A
*91 ANTENNA_input11_A
*92 ANTENNA_input12_A
*93 ANTENNA_input13_A
*94 ANTENNA_input1_A
*95 ANTENNA_input2_A
*96 ANTENNA_input3_A
*97 ANTENNA_input4_A
*98 ANTENNA_input5_A
*99 ANTENNA_input6_A
*100 ANTENNA_input7_A
*101 ANTENNA_input8_A
*102 ANTENNA_input9_A
*103 ANTENNA_output14_A
*104 ANTENNA_output15_A
*105 ANTENNA_output16_A
*106 ANTENNA_output17_A
*107 ANTENNA_output18_A
*108 ANTENNA_output19_A
*109 FILLER_0_109
*110 FILLER_0_113
*111 FILLER_0_125
*112 FILLER_0_13
*113 FILLER_0_137
*114 FILLER_0_141
*115 FILLER_0_153
*116 FILLER_0_165
*117 FILLER_0_169
*118 FILLER_0_177
*119 FILLER_0_181
*120 FILLER_0_188
*121 FILLER_0_197
*122 FILLER_0_209
*123 FILLER_0_221
*124 FILLER_0_225
*125 FILLER_0_237
*126 FILLER_0_249
*127 FILLER_0_25
*128 FILLER_0_253
*129 FILLER_0_265
*130 FILLER_0_277
*131 FILLER_0_281
*132 FILLER_0_286
*133 FILLER_0_29
*134 FILLER_0_300
*135 FILLER_0_309
*136 FILLER_0_321
*137 FILLER_0_333
*138 FILLER_0_337
*139 FILLER_0_349
*140 FILLER_0_361
*141 FILLER_0_365
*142 FILLER_0_377
*143 FILLER_0_385
*144 FILLER_0_388
*145 FILLER_0_397
*146 FILLER_0_409
*147 FILLER_0_41
*148 FILLER_0_417
*149 FILLER_0_421
*150 FILLER_0_433
*151 FILLER_0_445
*152 FILLER_0_449
*153 FILLER_0_461
*154 FILLER_0_473
*155 FILLER_0_477
*156 FILLER_0_485
*157 FILLER_0_489
*158 FILLER_0_497
*159 FILLER_0_503
*160 FILLER_0_505
*161 FILLER_0_513
*162 FILLER_0_53
*163 FILLER_0_57
*164 FILLER_0_69
*165 FILLER_0_7
*166 FILLER_0_81
*167 FILLER_0_85
*168 FILLER_0_91
*169 FILLER_0_97
*170 FILLER_10_109
*171 FILLER_10_121
*172 FILLER_10_133
*173 FILLER_10_139
*174 FILLER_10_141
*175 FILLER_10_15
*176 FILLER_10_153
*177 FILLER_10_165
*178 FILLER_10_177
*179 FILLER_10_189
*180 FILLER_10_195
*181 FILLER_10_197
*182 FILLER_10_209
*183 FILLER_10_221
*184 FILLER_10_233
*185 FILLER_10_245
*186 FILLER_10_251
*187 FILLER_10_253
*188 FILLER_10_265
*189 FILLER_10_27
*190 FILLER_10_277
*191 FILLER_10_289
*192 FILLER_10_29
*193 FILLER_10_3
*194 FILLER_10_301
*195 FILLER_10_307
*196 FILLER_10_309
*197 FILLER_10_321
*198 FILLER_10_333
*199 FILLER_10_345
*200 FILLER_10_357
*201 FILLER_10_363
*202 FILLER_10_365
*203 FILLER_10_377
*204 FILLER_10_389
*205 FILLER_10_401
*206 FILLER_10_41
*207 FILLER_10_413
*208 FILLER_10_419
*209 FILLER_10_421
*210 FILLER_10_433
*211 FILLER_10_445
*212 FILLER_10_457
*213 FILLER_10_469
*214 FILLER_10_475
*215 FILLER_10_477
*216 FILLER_10_489
*217 FILLER_10_501
*218 FILLER_10_513
*219 FILLER_10_53
*220 FILLER_10_65
*221 FILLER_10_77
*222 FILLER_10_83
*223 FILLER_10_85
*224 FILLER_10_97
*225 FILLER_11_105
*226 FILLER_11_111
*227 FILLER_11_113
*228 FILLER_11_125
*229 FILLER_11_137
*230 FILLER_11_149
*231 FILLER_11_15
*232 FILLER_11_161
*233 FILLER_11_167
*234 FILLER_11_169
*235 FILLER_11_181
*236 FILLER_11_193
*237 FILLER_11_205
*238 FILLER_11_217
*239 FILLER_11_223
*240 FILLER_11_225
*241 FILLER_11_237
*242 FILLER_11_249
*243 FILLER_11_261
*244 FILLER_11_27
*245 FILLER_11_273
*246 FILLER_11_279
*247 FILLER_11_281
*248 FILLER_11_293
*249 FILLER_11_3
*250 FILLER_11_305
*251 FILLER_11_317
*252 FILLER_11_329
*253 FILLER_11_335
*254 FILLER_11_337
*255 FILLER_11_349
*256 FILLER_11_361
*257 FILLER_11_373
*258 FILLER_11_385
*259 FILLER_11_39
*260 FILLER_11_391
*261 FILLER_11_393
*262 FILLER_11_405
*263 FILLER_11_417
*264 FILLER_11_429
*265 FILLER_11_441
*266 FILLER_11_447
*267 FILLER_11_449
*268 FILLER_11_461
*269 FILLER_11_473
*270 FILLER_11_485
*271 FILLER_11_497
*272 FILLER_11_503
*273 FILLER_11_505
*274 FILLER_11_51
*275 FILLER_11_513
*276 FILLER_11_55
*277 FILLER_11_57
*278 FILLER_11_69
*279 FILLER_11_81
*280 FILLER_11_93
*281 FILLER_12_109
*282 FILLER_12_121
*283 FILLER_12_133
*284 FILLER_12_139
*285 FILLER_12_141
*286 FILLER_12_15
*287 FILLER_12_153
*288 FILLER_12_165
*289 FILLER_12_177
*290 FILLER_12_189
*291 FILLER_12_195
*292 FILLER_12_197
*293 FILLER_12_209
*294 FILLER_12_221
*295 FILLER_12_233
*296 FILLER_12_245
*297 FILLER_12_251
*298 FILLER_12_253
*299 FILLER_12_265
*300 FILLER_12_27
*301 FILLER_12_277
*302 FILLER_12_289
*303 FILLER_12_29
*304 FILLER_12_3
*305 FILLER_12_301
*306 FILLER_12_307
*307 FILLER_12_309
*308 FILLER_12_321
*309 FILLER_12_333
*310 FILLER_12_345
*311 FILLER_12_357
*312 FILLER_12_363
*313 FILLER_12_365
*314 FILLER_12_377
*315 FILLER_12_389
*316 FILLER_12_401
*317 FILLER_12_41
*318 FILLER_12_413
*319 FILLER_12_419
*320 FILLER_12_421
*321 FILLER_12_433
*322 FILLER_12_445
*323 FILLER_12_457
*324 FILLER_12_469
*325 FILLER_12_475
*326 FILLER_12_477
*327 FILLER_12_489
*328 FILLER_12_501
*329 FILLER_12_513
*330 FILLER_12_53
*331 FILLER_12_65
*332 FILLER_12_77
*333 FILLER_12_83
*334 FILLER_12_85
*335 FILLER_12_97
*336 FILLER_13_105
*337 FILLER_13_111
*338 FILLER_13_113
*339 FILLER_13_125
*340 FILLER_13_137
*341 FILLER_13_149
*342 FILLER_13_161
*343 FILLER_13_167
*344 FILLER_13_169
*345 FILLER_13_17
*346 FILLER_13_181
*347 FILLER_13_193
*348 FILLER_13_205
*349 FILLER_13_217
*350 FILLER_13_223
*351 FILLER_13_225
*352 FILLER_13_237
*353 FILLER_13_249
*354 FILLER_13_261
*355 FILLER_13_273
*356 FILLER_13_279
*357 FILLER_13_281
*358 FILLER_13_29
*359 FILLER_13_293
*360 FILLER_13_305
*361 FILLER_13_317
*362 FILLER_13_329
*363 FILLER_13_335
*364 FILLER_13_337
*365 FILLER_13_349
*366 FILLER_13_361
*367 FILLER_13_373
*368 FILLER_13_385
*369 FILLER_13_391
*370 FILLER_13_393
*371 FILLER_13_405
*372 FILLER_13_41
*373 FILLER_13_417
*374 FILLER_13_429
*375 FILLER_13_441
*376 FILLER_13_447
*377 FILLER_13_449
*378 FILLER_13_461
*379 FILLER_13_473
*380 FILLER_13_485
*381 FILLER_13_497
*382 FILLER_13_5
*383 FILLER_13_503
*384 FILLER_13_505
*385 FILLER_13_513
*386 FILLER_13_53
*387 FILLER_13_57
*388 FILLER_13_69
*389 FILLER_13_81
*390 FILLER_13_93
*391 FILLER_14_109
*392 FILLER_14_121
*393 FILLER_14_133
*394 FILLER_14_139
*395 FILLER_14_141
*396 FILLER_14_153
*397 FILLER_14_165
*398 FILLER_14_177
*399 FILLER_14_189
*400 FILLER_14_19
*401 FILLER_14_195
*402 FILLER_14_197
*403 FILLER_14_209
*404 FILLER_14_221
*405 FILLER_14_233
*406 FILLER_14_245
*407 FILLER_14_251
*408 FILLER_14_253
*409 FILLER_14_265
*410 FILLER_14_27
*411 FILLER_14_277
*412 FILLER_14_289
*413 FILLER_14_29
*414 FILLER_14_301
*415 FILLER_14_307
*416 FILLER_14_309
*417 FILLER_14_321
*418 FILLER_14_333
*419 FILLER_14_345
*420 FILLER_14_357
*421 FILLER_14_363
*422 FILLER_14_365
*423 FILLER_14_377
*424 FILLER_14_389
*425 FILLER_14_401
*426 FILLER_14_41
*427 FILLER_14_413
*428 FILLER_14_419
*429 FILLER_14_421
*430 FILLER_14_433
*431 FILLER_14_445
*432 FILLER_14_457
*433 FILLER_14_469
*434 FILLER_14_475
*435 FILLER_14_477
*436 FILLER_14_489
*437 FILLER_14_501
*438 FILLER_14_513
*439 FILLER_14_53
*440 FILLER_14_65
*441 FILLER_14_7
*442 FILLER_14_77
*443 FILLER_14_83
*444 FILLER_14_85
*445 FILLER_14_97
*446 FILLER_15_105
*447 FILLER_15_111
*448 FILLER_15_113
*449 FILLER_15_125
*450 FILLER_15_137
*451 FILLER_15_149
*452 FILLER_15_15
*453 FILLER_15_161
*454 FILLER_15_167
*455 FILLER_15_169
*456 FILLER_15_181
*457 FILLER_15_193
*458 FILLER_15_205
*459 FILLER_15_217
*460 FILLER_15_223
*461 FILLER_15_225
*462 FILLER_15_237
*463 FILLER_15_249
*464 FILLER_15_261
*465 FILLER_15_27
*466 FILLER_15_273
*467 FILLER_15_279
*468 FILLER_15_281
*469 FILLER_15_293
*470 FILLER_15_3
*471 FILLER_15_305
*472 FILLER_15_317
*473 FILLER_15_329
*474 FILLER_15_335
*475 FILLER_15_337
*476 FILLER_15_349
*477 FILLER_15_361
*478 FILLER_15_373
*479 FILLER_15_385
*480 FILLER_15_39
*481 FILLER_15_391
*482 FILLER_15_393
*483 FILLER_15_405
*484 FILLER_15_417
*485 FILLER_15_429
*486 FILLER_15_441
*487 FILLER_15_447
*488 FILLER_15_449
*489 FILLER_15_461
*490 FILLER_15_473
*491 FILLER_15_485
*492 FILLER_15_497
*493 FILLER_15_503
*494 FILLER_15_505
*495 FILLER_15_51
*496 FILLER_15_513
*497 FILLER_15_55
*498 FILLER_15_57
*499 FILLER_15_69
*500 FILLER_15_81
*501 FILLER_15_93
*502 FILLER_16_109
*503 FILLER_16_121
*504 FILLER_16_133
*505 FILLER_16_139
*506 FILLER_16_141
*507 FILLER_16_15
*508 FILLER_16_153
*509 FILLER_16_165
*510 FILLER_16_177
*511 FILLER_16_189
*512 FILLER_16_195
*513 FILLER_16_197
*514 FILLER_16_209
*515 FILLER_16_221
*516 FILLER_16_233
*517 FILLER_16_245
*518 FILLER_16_251
*519 FILLER_16_253
*520 FILLER_16_265
*521 FILLER_16_27
*522 FILLER_16_277
*523 FILLER_16_289
*524 FILLER_16_29
*525 FILLER_16_3
*526 FILLER_16_301
*527 FILLER_16_307
*528 FILLER_16_309
*529 FILLER_16_321
*530 FILLER_16_333
*531 FILLER_16_345
*532 FILLER_16_357
*533 FILLER_16_363
*534 FILLER_16_365
*535 FILLER_16_377
*536 FILLER_16_389
*537 FILLER_16_401
*538 FILLER_16_41
*539 FILLER_16_413
*540 FILLER_16_419
*541 FILLER_16_421
*542 FILLER_16_433
*543 FILLER_16_445
*544 FILLER_16_457
*545 FILLER_16_469
*546 FILLER_16_475
*547 FILLER_16_477
*548 FILLER_16_489
*549 FILLER_16_501
*550 FILLER_16_513
*551 FILLER_16_53
*552 FILLER_16_65
*553 FILLER_16_77
*554 FILLER_16_83
*555 FILLER_16_85
*556 FILLER_16_97
*557 FILLER_17_105
*558 FILLER_17_111
*559 FILLER_17_113
*560 FILLER_17_125
*561 FILLER_17_137
*562 FILLER_17_149
*563 FILLER_17_15
*564 FILLER_17_161
*565 FILLER_17_167
*566 FILLER_17_169
*567 FILLER_17_181
*568 FILLER_17_193
*569 FILLER_17_205
*570 FILLER_17_217
*571 FILLER_17_223
*572 FILLER_17_225
*573 FILLER_17_237
*574 FILLER_17_249
*575 FILLER_17_261
*576 FILLER_17_27
*577 FILLER_17_273
*578 FILLER_17_279
*579 FILLER_17_281
*580 FILLER_17_293
*581 FILLER_17_3
*582 FILLER_17_305
*583 FILLER_17_317
*584 FILLER_17_329
*585 FILLER_17_335
*586 FILLER_17_337
*587 FILLER_17_349
*588 FILLER_17_361
*589 FILLER_17_373
*590 FILLER_17_385
*591 FILLER_17_39
*592 FILLER_17_391
*593 FILLER_17_393
*594 FILLER_17_405
*595 FILLER_17_417
*596 FILLER_17_429
*597 FILLER_17_441
*598 FILLER_17_447
*599 FILLER_17_449
*600 FILLER_17_461
*601 FILLER_17_473
*602 FILLER_17_485
*603 FILLER_17_497
*604 FILLER_17_503
*605 FILLER_17_505
*606 FILLER_17_51
*607 FILLER_17_513
*608 FILLER_17_55
*609 FILLER_17_57
*610 FILLER_17_69
*611 FILLER_17_81
*612 FILLER_17_93
*613 FILLER_18_109
*614 FILLER_18_121
*615 FILLER_18_133
*616 FILLER_18_139
*617 FILLER_18_141
*618 FILLER_18_15
*619 FILLER_18_153
*620 FILLER_18_165
*621 FILLER_18_177
*622 FILLER_18_189
*623 FILLER_18_195
*624 FILLER_18_197
*625 FILLER_18_209
*626 FILLER_18_221
*627 FILLER_18_233
*628 FILLER_18_245
*629 FILLER_18_251
*630 FILLER_18_253
*631 FILLER_18_265
*632 FILLER_18_27
*633 FILLER_18_277
*634 FILLER_18_289
*635 FILLER_18_29
*636 FILLER_18_3
*637 FILLER_18_301
*638 FILLER_18_307
*639 FILLER_18_309
*640 FILLER_18_321
*641 FILLER_18_333
*642 FILLER_18_345
*643 FILLER_18_357
*644 FILLER_18_363
*645 FILLER_18_365
*646 FILLER_18_377
*647 FILLER_18_389
*648 FILLER_18_401
*649 FILLER_18_41
*650 FILLER_18_413
*651 FILLER_18_419
*652 FILLER_18_421
*653 FILLER_18_433
*654 FILLER_18_445
*655 FILLER_18_457
*656 FILLER_18_469
*657 FILLER_18_475
*658 FILLER_18_477
*659 FILLER_18_489
*660 FILLER_18_501
*661 FILLER_18_513
*662 FILLER_18_53
*663 FILLER_18_65
*664 FILLER_18_77
*665 FILLER_18_83
*666 FILLER_18_85
*667 FILLER_18_97
*668 FILLER_19_105
*669 FILLER_19_111
*670 FILLER_19_113
*671 FILLER_19_125
*672 FILLER_19_137
*673 FILLER_19_149
*674 FILLER_19_15
*675 FILLER_19_161
*676 FILLER_19_167
*677 FILLER_19_169
*678 FILLER_19_181
*679 FILLER_19_193
*680 FILLER_19_205
*681 FILLER_19_217
*682 FILLER_19_223
*683 FILLER_19_225
*684 FILLER_19_237
*685 FILLER_19_249
*686 FILLER_19_261
*687 FILLER_19_27
*688 FILLER_19_273
*689 FILLER_19_279
*690 FILLER_19_281
*691 FILLER_19_293
*692 FILLER_19_3
*693 FILLER_19_305
*694 FILLER_19_317
*695 FILLER_19_329
*696 FILLER_19_335
*697 FILLER_19_337
*698 FILLER_19_349
*699 FILLER_19_361
*700 FILLER_19_373
*701 FILLER_19_385
*702 FILLER_19_39
*703 FILLER_19_391
*704 FILLER_19_393
*705 FILLER_19_405
*706 FILLER_19_417
*707 FILLER_19_429
*708 FILLER_19_441
*709 FILLER_19_447
*710 FILLER_19_449
*711 FILLER_19_461
*712 FILLER_19_473
*713 FILLER_19_485
*714 FILLER_19_497
*715 FILLER_19_503
*716 FILLER_19_505
*717 FILLER_19_51
*718 FILLER_19_513
*719 FILLER_19_55
*720 FILLER_19_57
*721 FILLER_19_69
*722 FILLER_19_81
*723 FILLER_19_93
*724 FILLER_1_105
*725 FILLER_1_111
*726 FILLER_1_113
*727 FILLER_1_125
*728 FILLER_1_137
*729 FILLER_1_149
*730 FILLER_1_15
*731 FILLER_1_161
*732 FILLER_1_167
*733 FILLER_1_169
*734 FILLER_1_181
*735 FILLER_1_193
*736 FILLER_1_205
*737 FILLER_1_217
*738 FILLER_1_223
*739 FILLER_1_225
*740 FILLER_1_237
*741 FILLER_1_249
*742 FILLER_1_261
*743 FILLER_1_27
*744 FILLER_1_273
*745 FILLER_1_279
*746 FILLER_1_281
*747 FILLER_1_293
*748 FILLER_1_3
*749 FILLER_1_305
*750 FILLER_1_317
*751 FILLER_1_329
*752 FILLER_1_335
*753 FILLER_1_337
*754 FILLER_1_349
*755 FILLER_1_361
*756 FILLER_1_373
*757 FILLER_1_385
*758 FILLER_1_39
*759 FILLER_1_391
*760 FILLER_1_393
*761 FILLER_1_405
*762 FILLER_1_417
*763 FILLER_1_429
*764 FILLER_1_441
*765 FILLER_1_447
*766 FILLER_1_449
*767 FILLER_1_461
*768 FILLER_1_473
*769 FILLER_1_485
*770 FILLER_1_497
*771 FILLER_1_503
*772 FILLER_1_505
*773 FILLER_1_51
*774 FILLER_1_513
*775 FILLER_1_55
*776 FILLER_1_57
*777 FILLER_1_69
*778 FILLER_1_81
*779 FILLER_1_93
*780 FILLER_20_109
*781 FILLER_20_121
*782 FILLER_20_133
*783 FILLER_20_139
*784 FILLER_20_141
*785 FILLER_20_15
*786 FILLER_20_153
*787 FILLER_20_165
*788 FILLER_20_177
*789 FILLER_20_189
*790 FILLER_20_195
*791 FILLER_20_197
*792 FILLER_20_209
*793 FILLER_20_221
*794 FILLER_20_233
*795 FILLER_20_245
*796 FILLER_20_251
*797 FILLER_20_253
*798 FILLER_20_265
*799 FILLER_20_27
*800 FILLER_20_277
*801 FILLER_20_289
*802 FILLER_20_29
*803 FILLER_20_3
*804 FILLER_20_301
*805 FILLER_20_307
*806 FILLER_20_309
*807 FILLER_20_321
*808 FILLER_20_333
*809 FILLER_20_345
*810 FILLER_20_357
*811 FILLER_20_363
*812 FILLER_20_365
*813 FILLER_20_377
*814 FILLER_20_389
*815 FILLER_20_401
*816 FILLER_20_41
*817 FILLER_20_413
*818 FILLER_20_419
*819 FILLER_20_421
*820 FILLER_20_433
*821 FILLER_20_445
*822 FILLER_20_457
*823 FILLER_20_469
*824 FILLER_20_475
*825 FILLER_20_477
*826 FILLER_20_489
*827 FILLER_20_501
*828 FILLER_20_513
*829 FILLER_20_53
*830 FILLER_20_65
*831 FILLER_20_77
*832 FILLER_20_83
*833 FILLER_20_85
*834 FILLER_20_97
*835 FILLER_21_105
*836 FILLER_21_111
*837 FILLER_21_113
*838 FILLER_21_125
*839 FILLER_21_137
*840 FILLER_21_149
*841 FILLER_21_15
*842 FILLER_21_161
*843 FILLER_21_167
*844 FILLER_21_169
*845 FILLER_21_181
*846 FILLER_21_193
*847 FILLER_21_205
*848 FILLER_21_217
*849 FILLER_21_223
*850 FILLER_21_225
*851 FILLER_21_237
*852 FILLER_21_249
*853 FILLER_21_261
*854 FILLER_21_27
*855 FILLER_21_273
*856 FILLER_21_279
*857 FILLER_21_281
*858 FILLER_21_293
*859 FILLER_21_3
*860 FILLER_21_305
*861 FILLER_21_317
*862 FILLER_21_329
*863 FILLER_21_335
*864 FILLER_21_337
*865 FILLER_21_349
*866 FILLER_21_361
*867 FILLER_21_373
*868 FILLER_21_385
*869 FILLER_21_39
*870 FILLER_21_391
*871 FILLER_21_393
*872 FILLER_21_405
*873 FILLER_21_417
*874 FILLER_21_429
*875 FILLER_21_441
*876 FILLER_21_447
*877 FILLER_21_449
*878 FILLER_21_461
*879 FILLER_21_473
*880 FILLER_21_485
*881 FILLER_21_497
*882 FILLER_21_503
*883 FILLER_21_505
*884 FILLER_21_51
*885 FILLER_21_513
*886 FILLER_21_55
*887 FILLER_21_57
*888 FILLER_21_69
*889 FILLER_21_81
*890 FILLER_21_93
*891 FILLER_22_109
*892 FILLER_22_121
*893 FILLER_22_133
*894 FILLER_22_139
*895 FILLER_22_141
*896 FILLER_22_15
*897 FILLER_22_153
*898 FILLER_22_165
*899 FILLER_22_177
*900 FILLER_22_189
*901 FILLER_22_195
*902 FILLER_22_197
*903 FILLER_22_209
*904 FILLER_22_221
*905 FILLER_22_233
*906 FILLER_22_245
*907 FILLER_22_251
*908 FILLER_22_253
*909 FILLER_22_265
*910 FILLER_22_27
*911 FILLER_22_277
*912 FILLER_22_289
*913 FILLER_22_29
*914 FILLER_22_3
*915 FILLER_22_301
*916 FILLER_22_307
*917 FILLER_22_309
*918 FILLER_22_321
*919 FILLER_22_333
*920 FILLER_22_345
*921 FILLER_22_357
*922 FILLER_22_363
*923 FILLER_22_365
*924 FILLER_22_377
*925 FILLER_22_389
*926 FILLER_22_401
*927 FILLER_22_41
*928 FILLER_22_413
*929 FILLER_22_419
*930 FILLER_22_421
*931 FILLER_22_433
*932 FILLER_22_445
*933 FILLER_22_457
*934 FILLER_22_469
*935 FILLER_22_475
*936 FILLER_22_477
*937 FILLER_22_489
*938 FILLER_22_501
*939 FILLER_22_513
*940 FILLER_22_53
*941 FILLER_22_65
*942 FILLER_22_77
*943 FILLER_22_83
*944 FILLER_22_85
*945 FILLER_22_97
*946 FILLER_23_105
*947 FILLER_23_111
*948 FILLER_23_113
*949 FILLER_23_125
*950 FILLER_23_137
*951 FILLER_23_149
*952 FILLER_23_15
*953 FILLER_23_161
*954 FILLER_23_167
*955 FILLER_23_169
*956 FILLER_23_181
*957 FILLER_23_193
*958 FILLER_23_205
*959 FILLER_23_217
*960 FILLER_23_223
*961 FILLER_23_225
*962 FILLER_23_237
*963 FILLER_23_249
*964 FILLER_23_261
*965 FILLER_23_27
*966 FILLER_23_273
*967 FILLER_23_279
*968 FILLER_23_281
*969 FILLER_23_293
*970 FILLER_23_3
*971 FILLER_23_305
*972 FILLER_23_317
*973 FILLER_23_329
*974 FILLER_23_335
*975 FILLER_23_337
*976 FILLER_23_349
*977 FILLER_23_361
*978 FILLER_23_373
*979 FILLER_23_385
*980 FILLER_23_39
*981 FILLER_23_391
*982 FILLER_23_393
*983 FILLER_23_405
*984 FILLER_23_417
*985 FILLER_23_429
*986 FILLER_23_441
*987 FILLER_23_447
*988 FILLER_23_449
*989 FILLER_23_461
*990 FILLER_23_473
*991 FILLER_23_485
*992 FILLER_23_497
*993 FILLER_23_503
*994 FILLER_23_505
*995 FILLER_23_51
*996 FILLER_23_513
*997 FILLER_23_55
*998 FILLER_23_57
*999 FILLER_23_69
*1000 FILLER_23_81
*1001 FILLER_23_93
*1002 FILLER_24_109
*1003 FILLER_24_121
*1004 FILLER_24_133
*1005 FILLER_24_139
*1006 FILLER_24_141
*1007 FILLER_24_15
*1008 FILLER_24_153
*1009 FILLER_24_165
*1010 FILLER_24_177
*1011 FILLER_24_189
*1012 FILLER_24_195
*1013 FILLER_24_197
*1014 FILLER_24_209
*1015 FILLER_24_221
*1016 FILLER_24_233
*1017 FILLER_24_245
*1018 FILLER_24_251
*1019 FILLER_24_253
*1020 FILLER_24_265
*1021 FILLER_24_27
*1022 FILLER_24_277
*1023 FILLER_24_289
*1024 FILLER_24_29
*1025 FILLER_24_3
*1026 FILLER_24_301
*1027 FILLER_24_307
*1028 FILLER_24_309
*1029 FILLER_24_321
*1030 FILLER_24_333
*1031 FILLER_24_345
*1032 FILLER_24_357
*1033 FILLER_24_363
*1034 FILLER_24_365
*1035 FILLER_24_377
*1036 FILLER_24_389
*1037 FILLER_24_401
*1038 FILLER_24_41
*1039 FILLER_24_413
*1040 FILLER_24_419
*1041 FILLER_24_421
*1042 FILLER_24_433
*1043 FILLER_24_445
*1044 FILLER_24_457
*1045 FILLER_24_469
*1046 FILLER_24_475
*1047 FILLER_24_477
*1048 FILLER_24_489
*1049 FILLER_24_501
*1050 FILLER_24_513
*1051 FILLER_24_53
*1052 FILLER_24_65
*1053 FILLER_24_77
*1054 FILLER_24_83
*1055 FILLER_24_85
*1056 FILLER_24_97
*1057 FILLER_25_105
*1058 FILLER_25_111
*1059 FILLER_25_113
*1060 FILLER_25_125
*1061 FILLER_25_137
*1062 FILLER_25_149
*1063 FILLER_25_15
*1064 FILLER_25_161
*1065 FILLER_25_167
*1066 FILLER_25_169
*1067 FILLER_25_181
*1068 FILLER_25_193
*1069 FILLER_25_205
*1070 FILLER_25_217
*1071 FILLER_25_223
*1072 FILLER_25_225
*1073 FILLER_25_237
*1074 FILLER_25_249
*1075 FILLER_25_261
*1076 FILLER_25_27
*1077 FILLER_25_273
*1078 FILLER_25_279
*1079 FILLER_25_281
*1080 FILLER_25_293
*1081 FILLER_25_3
*1082 FILLER_25_305
*1083 FILLER_25_317
*1084 FILLER_25_329
*1085 FILLER_25_335
*1086 FILLER_25_337
*1087 FILLER_25_349
*1088 FILLER_25_361
*1089 FILLER_25_373
*1090 FILLER_25_385
*1091 FILLER_25_39
*1092 FILLER_25_391
*1093 FILLER_25_393
*1094 FILLER_25_405
*1095 FILLER_25_417
*1096 FILLER_25_429
*1097 FILLER_25_441
*1098 FILLER_25_447
*1099 FILLER_25_449
*1100 FILLER_25_461
*1101 FILLER_25_473
*1102 FILLER_25_485
*1103 FILLER_25_497
*1104 FILLER_25_503
*1105 FILLER_25_505
*1106 FILLER_25_51
*1107 FILLER_25_513
*1108 FILLER_25_55
*1109 FILLER_25_57
*1110 FILLER_25_69
*1111 FILLER_25_81
*1112 FILLER_25_93
*1113 FILLER_26_109
*1114 FILLER_26_121
*1115 FILLER_26_133
*1116 FILLER_26_139
*1117 FILLER_26_141
*1118 FILLER_26_15
*1119 FILLER_26_153
*1120 FILLER_26_165
*1121 FILLER_26_177
*1122 FILLER_26_189
*1123 FILLER_26_195
*1124 FILLER_26_197
*1125 FILLER_26_209
*1126 FILLER_26_221
*1127 FILLER_26_233
*1128 FILLER_26_245
*1129 FILLER_26_251
*1130 FILLER_26_253
*1131 FILLER_26_265
*1132 FILLER_26_27
*1133 FILLER_26_277
*1134 FILLER_26_289
*1135 FILLER_26_29
*1136 FILLER_26_3
*1137 FILLER_26_301
*1138 FILLER_26_307
*1139 FILLER_26_309
*1140 FILLER_26_321
*1141 FILLER_26_333
*1142 FILLER_26_345
*1143 FILLER_26_357
*1144 FILLER_26_363
*1145 FILLER_26_365
*1146 FILLER_26_377
*1147 FILLER_26_389
*1148 FILLER_26_401
*1149 FILLER_26_41
*1150 FILLER_26_413
*1151 FILLER_26_419
*1152 FILLER_26_421
*1153 FILLER_26_433
*1154 FILLER_26_445
*1155 FILLER_26_457
*1156 FILLER_26_469
*1157 FILLER_26_475
*1158 FILLER_26_477
*1159 FILLER_26_489
*1160 FILLER_26_501
*1161 FILLER_26_513
*1162 FILLER_26_53
*1163 FILLER_26_65
*1164 FILLER_26_77
*1165 FILLER_26_83
*1166 FILLER_26_85
*1167 FILLER_26_97
*1168 FILLER_27_105
*1169 FILLER_27_111
*1170 FILLER_27_113
*1171 FILLER_27_125
*1172 FILLER_27_137
*1173 FILLER_27_149
*1174 FILLER_27_15
*1175 FILLER_27_161
*1176 FILLER_27_167
*1177 FILLER_27_169
*1178 FILLER_27_181
*1179 FILLER_27_193
*1180 FILLER_27_205
*1181 FILLER_27_217
*1182 FILLER_27_223
*1183 FILLER_27_225
*1184 FILLER_27_237
*1185 FILLER_27_249
*1186 FILLER_27_261
*1187 FILLER_27_27
*1188 FILLER_27_273
*1189 FILLER_27_279
*1190 FILLER_27_281
*1191 FILLER_27_293
*1192 FILLER_27_3
*1193 FILLER_27_305
*1194 FILLER_27_317
*1195 FILLER_27_329
*1196 FILLER_27_335
*1197 FILLER_27_337
*1198 FILLER_27_349
*1199 FILLER_27_361
*1200 FILLER_27_373
*1201 FILLER_27_385
*1202 FILLER_27_39
*1203 FILLER_27_391
*1204 FILLER_27_393
*1205 FILLER_27_405
*1206 FILLER_27_417
*1207 FILLER_27_429
*1208 FILLER_27_441
*1209 FILLER_27_447
*1210 FILLER_27_449
*1211 FILLER_27_461
*1212 FILLER_27_473
*1213 FILLER_27_485
*1214 FILLER_27_497
*1215 FILLER_27_503
*1216 FILLER_27_505
*1217 FILLER_27_51
*1218 FILLER_27_513
*1219 FILLER_27_55
*1220 FILLER_27_57
*1221 FILLER_27_69
*1222 FILLER_27_81
*1223 FILLER_27_93
*1224 FILLER_28_109
*1225 FILLER_28_121
*1226 FILLER_28_133
*1227 FILLER_28_139
*1228 FILLER_28_141
*1229 FILLER_28_15
*1230 FILLER_28_153
*1231 FILLER_28_165
*1232 FILLER_28_177
*1233 FILLER_28_189
*1234 FILLER_28_195
*1235 FILLER_28_197
*1236 FILLER_28_209
*1237 FILLER_28_221
*1238 FILLER_28_233
*1239 FILLER_28_245
*1240 FILLER_28_251
*1241 FILLER_28_253
*1242 FILLER_28_265
*1243 FILLER_28_27
*1244 FILLER_28_277
*1245 FILLER_28_289
*1246 FILLER_28_29
*1247 FILLER_28_3
*1248 FILLER_28_301
*1249 FILLER_28_307
*1250 FILLER_28_309
*1251 FILLER_28_321
*1252 FILLER_28_333
*1253 FILLER_28_345
*1254 FILLER_28_357
*1255 FILLER_28_363
*1256 FILLER_28_365
*1257 FILLER_28_377
*1258 FILLER_28_389
*1259 FILLER_28_401
*1260 FILLER_28_41
*1261 FILLER_28_413
*1262 FILLER_28_419
*1263 FILLER_28_421
*1264 FILLER_28_433
*1265 FILLER_28_445
*1266 FILLER_28_457
*1267 FILLER_28_469
*1268 FILLER_28_475
*1269 FILLER_28_477
*1270 FILLER_28_489
*1271 FILLER_28_501
*1272 FILLER_28_513
*1273 FILLER_28_53
*1274 FILLER_28_65
*1275 FILLER_28_77
*1276 FILLER_28_83
*1277 FILLER_28_85
*1278 FILLER_28_97
*1279 FILLER_29_105
*1280 FILLER_29_111
*1281 FILLER_29_113
*1282 FILLER_29_125
*1283 FILLER_29_137
*1284 FILLER_29_149
*1285 FILLER_29_15
*1286 FILLER_29_161
*1287 FILLER_29_167
*1288 FILLER_29_169
*1289 FILLER_29_181
*1290 FILLER_29_193
*1291 FILLER_29_205
*1292 FILLER_29_217
*1293 FILLER_29_223
*1294 FILLER_29_225
*1295 FILLER_29_237
*1296 FILLER_29_249
*1297 FILLER_29_261
*1298 FILLER_29_27
*1299 FILLER_29_273
*1300 FILLER_29_279
*1301 FILLER_29_281
*1302 FILLER_29_293
*1303 FILLER_29_3
*1304 FILLER_29_305
*1305 FILLER_29_317
*1306 FILLER_29_329
*1307 FILLER_29_335
*1308 FILLER_29_337
*1309 FILLER_29_349
*1310 FILLER_29_361
*1311 FILLER_29_373
*1312 FILLER_29_385
*1313 FILLER_29_39
*1314 FILLER_29_391
*1315 FILLER_29_393
*1316 FILLER_29_405
*1317 FILLER_29_417
*1318 FILLER_29_429
*1319 FILLER_29_441
*1320 FILLER_29_447
*1321 FILLER_29_449
*1322 FILLER_29_461
*1323 FILLER_29_473
*1324 FILLER_29_485
*1325 FILLER_29_497
*1326 FILLER_29_503
*1327 FILLER_29_505
*1328 FILLER_29_51
*1329 FILLER_29_513
*1330 FILLER_29_55
*1331 FILLER_29_57
*1332 FILLER_29_69
*1333 FILLER_29_81
*1334 FILLER_29_93
*1335 FILLER_2_109
*1336 FILLER_2_121
*1337 FILLER_2_133
*1338 FILLER_2_139
*1339 FILLER_2_141
*1340 FILLER_2_15
*1341 FILLER_2_153
*1342 FILLER_2_165
*1343 FILLER_2_177
*1344 FILLER_2_189
*1345 FILLER_2_195
*1346 FILLER_2_197
*1347 FILLER_2_209
*1348 FILLER_2_221
*1349 FILLER_2_233
*1350 FILLER_2_245
*1351 FILLER_2_251
*1352 FILLER_2_253
*1353 FILLER_2_265
*1354 FILLER_2_27
*1355 FILLER_2_277
*1356 FILLER_2_289
*1357 FILLER_2_29
*1358 FILLER_2_3
*1359 FILLER_2_301
*1360 FILLER_2_307
*1361 FILLER_2_309
*1362 FILLER_2_321
*1363 FILLER_2_333
*1364 FILLER_2_345
*1365 FILLER_2_357
*1366 FILLER_2_363
*1367 FILLER_2_365
*1368 FILLER_2_377
*1369 FILLER_2_389
*1370 FILLER_2_401
*1371 FILLER_2_41
*1372 FILLER_2_413
*1373 FILLER_2_419
*1374 FILLER_2_421
*1375 FILLER_2_433
*1376 FILLER_2_445
*1377 FILLER_2_457
*1378 FILLER_2_469
*1379 FILLER_2_475
*1380 FILLER_2_477
*1381 FILLER_2_489
*1382 FILLER_2_501
*1383 FILLER_2_513
*1384 FILLER_2_53
*1385 FILLER_2_65
*1386 FILLER_2_77
*1387 FILLER_2_83
*1388 FILLER_2_85
*1389 FILLER_2_97
*1390 FILLER_30_109
*1391 FILLER_30_121
*1392 FILLER_30_133
*1393 FILLER_30_139
*1394 FILLER_30_141
*1395 FILLER_30_153
*1396 FILLER_30_165
*1397 FILLER_30_177
*1398 FILLER_30_189
*1399 FILLER_30_19
*1400 FILLER_30_195
*1401 FILLER_30_197
*1402 FILLER_30_209
*1403 FILLER_30_221
*1404 FILLER_30_233
*1405 FILLER_30_245
*1406 FILLER_30_251
*1407 FILLER_30_253
*1408 FILLER_30_265
*1409 FILLER_30_27
*1410 FILLER_30_277
*1411 FILLER_30_289
*1412 FILLER_30_29
*1413 FILLER_30_3
*1414 FILLER_30_301
*1415 FILLER_30_307
*1416 FILLER_30_309
*1417 FILLER_30_321
*1418 FILLER_30_333
*1419 FILLER_30_345
*1420 FILLER_30_357
*1421 FILLER_30_363
*1422 FILLER_30_365
*1423 FILLER_30_377
*1424 FILLER_30_389
*1425 FILLER_30_401
*1426 FILLER_30_41
*1427 FILLER_30_413
*1428 FILLER_30_419
*1429 FILLER_30_421
*1430 FILLER_30_433
*1431 FILLER_30_445
*1432 FILLER_30_457
*1433 FILLER_30_469
*1434 FILLER_30_475
*1435 FILLER_30_477
*1436 FILLER_30_489
*1437 FILLER_30_501
*1438 FILLER_30_513
*1439 FILLER_30_53
*1440 FILLER_30_65
*1441 FILLER_30_7
*1442 FILLER_30_77
*1443 FILLER_30_83
*1444 FILLER_30_85
*1445 FILLER_30_97
*1446 FILLER_31_105
*1447 FILLER_31_11
*1448 FILLER_31_111
*1449 FILLER_31_113
*1450 FILLER_31_125
*1451 FILLER_31_137
*1452 FILLER_31_149
*1453 FILLER_31_161
*1454 FILLER_31_167
*1455 FILLER_31_169
*1456 FILLER_31_181
*1457 FILLER_31_193
*1458 FILLER_31_205
*1459 FILLER_31_217
*1460 FILLER_31_223
*1461 FILLER_31_225
*1462 FILLER_31_23
*1463 FILLER_31_237
*1464 FILLER_31_249
*1465 FILLER_31_261
*1466 FILLER_31_273
*1467 FILLER_31_279
*1468 FILLER_31_281
*1469 FILLER_31_293
*1470 FILLER_31_3
*1471 FILLER_31_305
*1472 FILLER_31_317
*1473 FILLER_31_329
*1474 FILLER_31_335
*1475 FILLER_31_337
*1476 FILLER_31_349
*1477 FILLER_31_35
*1478 FILLER_31_361
*1479 FILLER_31_373
*1480 FILLER_31_385
*1481 FILLER_31_391
*1482 FILLER_31_393
*1483 FILLER_31_405
*1484 FILLER_31_417
*1485 FILLER_31_429
*1486 FILLER_31_441
*1487 FILLER_31_447
*1488 FILLER_31_449
*1489 FILLER_31_461
*1490 FILLER_31_47
*1491 FILLER_31_473
*1492 FILLER_31_485
*1493 FILLER_31_497
*1494 FILLER_31_503
*1495 FILLER_31_505
*1496 FILLER_31_513
*1497 FILLER_31_55
*1498 FILLER_31_57
*1499 FILLER_31_69
*1500 FILLER_31_81
*1501 FILLER_31_93
*1502 FILLER_32_109
*1503 FILLER_32_121
*1504 FILLER_32_133
*1505 FILLER_32_139
*1506 FILLER_32_141
*1507 FILLER_32_15
*1508 FILLER_32_153
*1509 FILLER_32_165
*1510 FILLER_32_177
*1511 FILLER_32_189
*1512 FILLER_32_195
*1513 FILLER_32_197
*1514 FILLER_32_209
*1515 FILLER_32_221
*1516 FILLER_32_233
*1517 FILLER_32_245
*1518 FILLER_32_251
*1519 FILLER_32_253
*1520 FILLER_32_265
*1521 FILLER_32_27
*1522 FILLER_32_277
*1523 FILLER_32_289
*1524 FILLER_32_29
*1525 FILLER_32_3
*1526 FILLER_32_301
*1527 FILLER_32_307
*1528 FILLER_32_309
*1529 FILLER_32_321
*1530 FILLER_32_333
*1531 FILLER_32_345
*1532 FILLER_32_357
*1533 FILLER_32_363
*1534 FILLER_32_365
*1535 FILLER_32_377
*1536 FILLER_32_389
*1537 FILLER_32_401
*1538 FILLER_32_41
*1539 FILLER_32_413
*1540 FILLER_32_419
*1541 FILLER_32_421
*1542 FILLER_32_433
*1543 FILLER_32_445
*1544 FILLER_32_457
*1545 FILLER_32_469
*1546 FILLER_32_475
*1547 FILLER_32_477
*1548 FILLER_32_489
*1549 FILLER_32_501
*1550 FILLER_32_513
*1551 FILLER_32_53
*1552 FILLER_32_65
*1553 FILLER_32_77
*1554 FILLER_32_83
*1555 FILLER_32_85
*1556 FILLER_32_97
*1557 FILLER_33_105
*1558 FILLER_33_111
*1559 FILLER_33_113
*1560 FILLER_33_125
*1561 FILLER_33_137
*1562 FILLER_33_149
*1563 FILLER_33_15
*1564 FILLER_33_161
*1565 FILLER_33_167
*1566 FILLER_33_169
*1567 FILLER_33_181
*1568 FILLER_33_193
*1569 FILLER_33_205
*1570 FILLER_33_217
*1571 FILLER_33_223
*1572 FILLER_33_225
*1573 FILLER_33_237
*1574 FILLER_33_249