*SPEF "ieee 1481-1999"
*DESIGN "pc"
*DATE "11:11:11 Fri 11 11, 1111"
*VENDOR "OpenRCX"
*PROGRAM "Parallel Extraction"
*VERSION "1.0"
*DESIGN_FLOW "NAME_SCOPE LOCAL" "PIN_CAP NONE"
*DIVIDER /
*DELIMITER :
*BUS_DELIMITER []
*T_UNIT 1 NS
*C_UNIT 1 PF
*R_UNIT 1 OHM
*L_UNIT 1 HENRY

*NAME_MAP
*1 alu_branch
*2 branch
*3 clk
*4 immediate[0]
*5 immediate[10]
*6 immediate[11]
*7 immediate[12]
*8 immediate[13]
*9 immediate[14]
*10 immediate[15]
*11 immediate[16]
*12 immediate[17]
*13 immediate[18]
*14 immediate[19]
*15 immediate[1]
*16 immediate[20]
*17 immediate[21]
*18 immediate[22]
*19 immediate[23]
*20 immediate[24]
*21 immediate[25]
*22 immediate[26]
*23 immediate[27]
*24 immediate[28]
*25 immediate[29]
*26 immediate[2]
*27 immediate[30]
*28 immediate[31]
*29 immediate[3]
*30 immediate[4]
*31 immediate[5]
*32 immediate[6]
*33 immediate[7]
*34 immediate[8]
*35 immediate[9]
*36 jump_jal
*37 jump_jalr
*38 pc_out[0]
*39 pc_out[10]
*40 pc_out[11]
*41 pc_out[12]
*42 pc_out[13]
*43 pc_out[14]
*44 pc_out[15]
*45 pc_out[16]
*46 pc_out[17]
*47 pc_out[18]
*48 pc_out[19]
*49 pc_out[1]
*50 pc_out[20]
*51 pc_out[21]
*52 pc_out[22]
*53 pc_out[23]
*54 pc_out[24]
*55 pc_out[25]
*56 pc_out[26]
*57 pc_out[27]
*58 pc_out[28]
*59 pc_out[29]
*60 pc_out[2]
*61 pc_out[30]
*62 pc_out[31]
*63 pc_out[3]
*64 pc_out[4]
*65 pc_out[5]
*66 pc_out[6]
*67 pc_out[7]
*68 pc_out[8]
*69 pc_out[9]
*70 rs1_data[0]
*71 rs1_data[10]
*72 rs1_data[11]
*73 rs1_data[12]
*74 rs1_data[13]
*75 rs1_data[14]
*76 rs1_data[15]
*77 rs1_data[16]
*78 rs1_data[17]
*79 rs1_data[18]
*80 rs1_data[19]
*81 rs1_data[1]
*82 rs1_data[20]
*83 rs1_data[21]
*84 rs1_data[22]
*85 rs1_data[23]
*86 rs1_data[24]
*87 rs1_data[25]
*88 rs1_data[26]
*89 rs1_data[27]
*90 rs1_data[28]
*91 rs1_data[29]
*92 rs1_data[2]
*93 rs1_data[30]
*94 rs1_data[31]
*95 rs1_data[3]
*96 rs1_data[4]
*97 rs1_data[5]
*98 rs1_data[6]
*99 rs1_data[7]
*100 rs1_data[8]
*101 rs1_data[9]
*102 rst_n
*105 _0000_
*106 _0001_
*107 _0002_
*108 _0003_
*109 _0004_
*110 _0005_
*111 _0006_
*112 _0007_
*113 _0008_
*114 _0009_
*115 _0010_
*116 _0011_
*117 _0012_
*118 _0013_
*119 _0014_
*120 _0015_
*121 _0016_
*122 _0017_
*123 _0018_
*124 _0019_
*125 _0020_
*126 _0021_
*127 _0022_
*128 _0023_
*129 _0024_
*130 _0025_
*131 _0026_
*132 _0027_
*133 _0028_
*134 _0029_
*135 _0030_
*136 _0031_
*137 _0032_
*138 _0033_
*139 _0034_
*140 _0035_
*141 _0036_
*142 _0037_
*143 _0038_
*144 _0039_
*145 _0040_
*146 _0041_
*147 _0042_
*148 _0043_
*149 _0044_
*150 _0045_
*151 _0046_
*152 _0047_
*153 _0048_
*154 _0049_
*155 _0050_
*156 _0051_
*157 _0052_
*158 _0053_
*159 _0054_
*160 _0055_
*161 _0056_
*162 _0057_
*163 _0058_
*164 _0059_
*165 _0060_
*166 _0061_
*167 _0062_
*168 _0063_
*169 _0064_
*170 _0065_
*171 _0066_
*172 _0067_
*173 _0068_
*174 _0069_
*175 _0070_
*176 _0071_
*177 _0072_
*178 _0073_
*179 _0074_
*180 _0075_
*181 _0076_
*182 _0077_
*183 _0078_
*184 _0079_
*185 _0080_
*186 _0081_
*187 _0082_
*188 _0083_
*189 _0084_
*190 _0085_
*191 _0086_
*192 _0087_
*193 _0088_
*194 _0089_
*195 _0090_
*196 _0091_
*197 _0092_
*198 _0093_
*199 _0094_
*200 _0095_
*201 _0096_
*202 _0097_
*203 _0098_
*204 _0099_
*205 _0100_
*206 _0101_
*207 _0102_
*208 _0103_
*209 _0104_
*210 _0105_
*211 _0106_
*212 _0107_
*213 _0108_
*214 _0109_
*215 _0110_
*216 _0111_
*217 _0112_
*218 _0113_
*219 _0114_
*220 _0115_
*221 _0116_
*222 _0117_
*223 _0118_
*224 _0119_
*225 _0120_
*226 _0121_
*227 _0122_
*228 _0123_
*229 _0124_
*230 _0125_
*231 _0126_
*232 _0127_
*233 _0128_
*234 _0129_
*235 _0130_
*236 _0131_
*237 _0132_
*238 _0133_
*239 _0134_
*240 _0135_
*241 _0136_
*242 _0137_
*243 _0138_
*244 _0139_
*245 _0140_
*246 _0141_
*247 _0142_
*248 _0143_
*249 _0144_
*250 _0145_
*251 _0146_
*252 _0147_
*253 _0148_
*254 _0149_
*255 _0150_
*256 _0151_
*257 _0152_
*258 _0153_
*259 _0154_
*260 _0155_
*261 _0156_
*262 _0157_
*263 _0158_
*264 _0159_
*265 _0160_
*266 _0161_
*267 _0162_
*268 _0163_
*269 _0164_
*270 _0165_
*271 _0166_
*272 _0167_
*273 _0168_
*274 _0169_
*275 _0170_
*276 _0171_
*277 _0172_
*278 _0173_
*279 _0174_
*280 _0175_
*281 _0176_
*282 _0177_
*283 _0178_
*284 _0179_
*285 _0180_
*286 _0181_
*287 _0182_
*288 _0183_
*289 _0184_
*290 _0185_
*291 _0186_
*292 _0187_
*293 _0188_
*294 _0189_
*295 _0190_
*296 _0191_
*297 _0192_
*298 _0193_
*299 _0194_
*300 _0195_
*301 _0196_
*302 _0197_
*303 _0198_
*304 _0199_
*305 _0200_
*306 _0201_
*307 _0202_
*308 _0203_
*309 _0204_
*310 _0205_
*311 _0206_
*312 _0207_
*313 _0208_
*314 _0209_
*315 _0210_
*316 _0211_
*317 _0212_
*318 _0213_
*319 _0214_
*320 _0215_
*321 _0216_
*322 _0217_
*323 _0218_
*324 _0219_
*325 _0220_
*326 _0221_
*327 _0222_
*328 _0223_
*329 _0224_
*330 _0225_
*331 _0226_
*332 _0227_
*333 _0228_
*334 _0229_
*335 _0230_
*336 _0231_
*337 _0232_
*338 _0233_
*339 _0234_
*340 _0235_
*341 _0236_
*342 _0237_
*343 _0238_
*344 _0239_
*345 _0240_
*346 _0241_
*347 _0242_
*348 _0243_
*349 _0244_
*350 _0245_
*351 _0246_
*352 _0247_
*353 _0248_
*354 _0249_
*355 _0250_
*356 _0251_
*357 _0252_
*358 _0253_
*359 _0254_
*360 _0255_
*361 _0256_
*362 _0257_
*363 _0258_
*364 _0259_
*365 _0260_
*366 _0261_
*367 _0262_
*368 _0263_
*369 _0264_
*370 _0265_
*371 _0266_
*372 _0267_
*373 _0268_
*374 _0269_
*375 _0270_
*376 _0271_
*377 _0272_
*378 _0273_
*379 _0274_
*380 _0275_
*381 _0276_
*382 _0277_
*383 _0278_
*384 _0279_
*385 _0280_
*386 _0281_
*387 _0282_
*388 _0283_
*389 _0284_
*390 _0285_
*391 _0286_
*392 _0287_
*393 _0288_
*394 _0289_
*395 _0290_
*396 _0291_
*397 _0292_
*398 _0293_
*399 _0294_
*400 _0295_
*401 _0296_
*402 _0297_
*403 _0298_
*404 _0299_
*405 _0300_
*406 _0301_
*407 _0302_
*408 _0303_
*409 _0304_
*410 _0305_
*411 _0306_
*412 _0307_
*413 _0308_
*414 _0309_
*415 _0310_
*416 _0311_
*417 _0312_
*418 _0313_
*419 _0314_
*420 _0315_
*421 _0316_
*422 _0317_
*423 _0318_
*424 _0319_
*425 _0320_
*426 _0321_
*427 _0322_
*428 _0323_
*429 _0324_
*430 _0325_
*431 _0326_
*432 _0327_
*433 _0328_
*434 _0329_
*435 _0330_
*436 _0331_
*437 _0332_
*438 _0333_
*439 _0334_
*440 _0335_
*441 _0336_
*442 _0337_
*443 _0338_
*444 _0339_
*445 _0340_
*446 _0341_
*447 _0342_
*448 _0343_
*449 _0344_
*450 _0345_
*451 _0346_
*452 _0347_
*453 _0348_
*454 _0349_
*455 _0350_
*456 _0351_
*457 _0352_
*458 _0353_
*459 _0354_
*460 _0355_
*461 _0356_
*462 _0357_
*463 _0358_
*464 _0359_
*465 _0360_
*466 _0361_
*467 _0362_
*468 _0363_
*469 _0364_
*470 _0365_
*471 _0366_
*472 _0367_
*473 _0368_
*474 _0369_
*475 _0370_
*476 _0371_
*477 _0372_
*478 _0373_
*479 _0374_
*480 _0375_
*481 _0376_
*482 _0377_
*483 _0378_
*484 _0379_
*485 _0380_
*486 _0381_
*487 _0382_
*488 _0383_
*489 _0384_
*490 _0385_
*491 _0386_
*492 _0387_
*493 _0388_
*494 _0389_
*495 _0390_
*496 _0391_
*497 _0392_
*498 _0393_
*499 _0394_
*500 _0395_
*501 _0396_
*502 _0397_
*503 _0398_
*504 _0399_
*505 _0400_
*506 _0401_
*507 _0402_
*508 _0403_
*509 _0404_
*510 _0405_
*511 _0406_
*512 _0407_
*513 _0408_
*514 _0409_
*515 _0410_
*516 _0411_
*517 _0412_
*518 _0413_
*519 _0414_
*520 _0415_
*521 _0416_
*522 _0417_
*523 _0418_
*524 _0419_
*525 _0420_
*526 _0421_
*527 _0422_
*528 _0423_
*529 _0424_
*530 _0425_
*531 _0426_
*532 _0427_
*533 _0428_
*534 _0429_
*535 _0430_
*536 _0431_
*537 _0432_
*538 _0433_
*539 _0434_
*540 _0435_
*541 _0436_
*542 _0437_
*543 _0438_
*544 _0439_
*545 _0440_
*546 _0441_
*547 _0442_
*548 _0443_
*549 _0444_
*550 _0445_
*551 _0446_
*552 _0447_
*553 _0448_
*554 _0449_
*555 _0450_
*556 _0451_
*557 _0452_
*558 _0453_
*559 _0454_
*560 _0455_
*561 _0456_
*562 _0457_
*563 _0458_
*564 _0459_
*565 _0460_
*566 _0461_
*567 _0462_
*568 _0463_
*569 _0464_
*570 _0465_
*571 _0466_
*572 _0467_
*573 _0468_
*574 _0469_
*575 _0470_
*576 _0471_
*577 _0472_
*578 _0473_
*579 _0474_
*580 _0475_
*581 _0476_
*582 _0477_
*583 _0478_
*584 _0479_
*585 _0480_
*586 _0481_
*587 _0482_
*588 _0483_
*589 _0484_
*590 _0485_
*591 _0486_
*592 _0487_
*593 _0488_
*594 _0489_
*595 _0490_
*596 _0491_
*597 _0492_
*598 _0493_
*599 _0494_
*600 _0495_
*601 _0496_
*602 _0497_
*603 _0498_
*604 _0499_
*605 _0500_
*606 _0501_
*607 _0502_
*608 _0503_
*609 _0504_
*610 _0505_
*611 _0506_
*612 _0507_
*613 _0508_
*614 _0509_
*615 _0510_
*616 _0511_
*617 _0512_
*618 _0513_
*619 _0514_
*620 _0515_
*621 _0516_
*622 _0517_
*623 _0518_
*624 _0519_
*625 _0520_
*626 _0521_
*627 _0522_
*628 _0523_
*629 _0524_
*630 _0525_
*631 _0526_
*632 _0527_
*633 _0528_
*634 _0529_
*635 _0530_
*636 _0531_
*637 _0532_
*638 _0533_
*639 _0534_
*640 _0535_
*641 _0536_
*642 _0537_
*643 _0538_
*644 _0539_
*645 _0540_
*646 _0541_
*647 _0542_
*648 _0543_
*649 _0544_
*650 _0545_
*651 _0546_
*652 _0547_
*653 _0548_
*654 _0549_
*655 _0550_
*656 _0551_
*657 _0552_
*658 _0553_
*659 _0554_
*660 _0555_
*661 _0556_
*662 _0557_
*663 _0558_
*664 _0559_
*665 _0560_
*666 _0561_
*667 _0562_
*668 _0563_
*669 _0564_
*670 _0565_
*671 _0566_
*672 _0567_
*673 _0568_
*674 _0569_
*675 _0570_
*676 _0571_
*677 _0572_
*678 _0573_
*679 _0574_
*680 _0575_
*681 _0576_
*682 _0577_
*683 _0578_
*684 _0579_
*685 _0580_
*686 _0581_
*687 _0582_
*688 _0583_
*689 _0584_
*690 _0585_
*691 _0586_
*692 _0587_
*693 _0588_
*694 _0589_
*695 _0590_
*696 _0591_
*697 _0592_
*698 _0593_
*699 _0594_
*700 _0595_
*701 _0596_
*702 _0597_
*703 _0598_
*704 _0599_
*705 _0600_
*706 _0601_
*707 _0602_
*708 _0603_
*709 _0604_
*710 _0605_
*711 _0606_
*712 _0607_
*713 _0608_
*714 _0609_
*715 _0610_
*716 _0611_
*717 _0612_
*718 _0613_
*719 _0614_
*720 _0615_
*721 _0616_
*722 _0617_
*723 _0618_
*724 _0619_
*725 _0620_
*726 _0621_
*727 _0622_
*728 _0623_
*729 _0624_
*730 _0625_
*731 _0626_
*732 _0627_
*733 _0628_
*734 _0629_
*735 _0630_
*736 _0631_
*737 _0632_
*738 _0633_
*739 _0634_
*740 _0635_
*741 _0636_
*742 _0637_
*743 _0638_
*744 _0639_
*745 _0640_
*746 _0641_
*747 _0642_
*748 _0643_
*749 _0644_
*750 _0645_
*751 _0646_
*752 _0647_
*753 _0648_
*754 _0649_
*755 _0650_
*756 _0651_
*757 _0652_
*758 _0653_
*759 _0654_
*760 _0655_
*761 _0656_
*762 _0657_
*763 _0658_
*764 _0659_
*765 _0660_
*766 _0661_
*767 _0662_
*768 _0663_
*769 _0664_
*770 _0665_
*771 _0666_
*772 _0667_
*773 _0668_
*774 _0669_
*775 _0670_
*776 _0671_
*777 _0672_
*778 _0673_
*779 _0674_
*780 _0675_
*781 _0676_
*782 _0677_
*783 _0678_
*784 _0679_
*785 _0680_
*786 _0681_
*787 _0682_
*788 _0683_
*789 _0684_
*790 _0685_
*791 _0686_
*792 _0687_
*793 _0688_
*794 _0689_
*795 _0690_
*796 _0691_
*797 _0692_
*798 _0693_
*799 _0694_
*800 _0695_
*801 _0696_
*802 _0697_
*803 _0698_
*804 _0699_
*805 _0700_
*806 _0701_
*807 _0702_
*808 _0703_
*809 _0704_
*810 _0705_
*811 _0706_
*812 _0707_
*813 _0708_
*814 _0709_
*815 _0710_
*816 _0711_
*817 _0712_
*818 _0713_
*819 _0714_
*820 _0715_
*821 _0716_
*822 _0717_
*823 _0718_
*824 _0719_
*825 _0720_
*826 _0721_
*827 _0722_
*828 _0723_
*829 _0724_
*830 _0725_
*831 _0726_
*832 clknet_0_clk
*833 clknet_2_0__leaf_clk
*834 clknet_2_1__leaf_clk
*835 clknet_2_2__leaf_clk
*836 clknet_2_3__leaf_clk
*837 net1
*838 net10
*839 net100
*840 net101
*841 net11
*842 net12
*843 net13
*844 net14
*845 net15
*846 net16
*847 net17
*848 net18
*849 net19
*850 net2
*851 net20
*852 net21
*853 net22
*854 net23
*855 net24
*856 net25
*857 net26
*858 net27
*859 net28
*860 net29
*861 net3
*862 net30
*863 net31
*864 net32
*865 net33
*866 net34
*867 net35
*868 net36
*869 net37
*870 net38
*871 net39
*872 net4
*873 net40
*874 net41
*875 net42
*876 net43
*877 net44
*878 net45
*879 net46
*880 net47
*881 net48
*882 net49
*883 net5
*884 net50
*885 net51
*886 net52
*887 net53
*888 net54
*889 net55
*890 net56
*891 net57
*892 net58
*893 net59
*894 net6
*895 net60
*896 net61
*897 net62
*898 net63
*899 net64
*900 net65
*901 net66
*902 net67
*903 net68
*904 net69
*905 net7
*906 net70
*907 net71
*908 net72
*909 net73
*910 net74
*911 net75
*912 net76
*913 net77
*914 net78
*915 net79
*916 net8
*917 net80
*918 net81
*919 net82
*920 net83
*921 net84
*922 net85
*923 net86
*924 net87
*925 net88
*926 net89
*927 net9
*928 net90
*929 net91
*930 net92
*931 net93
*932 net94
*933 net95
*934 net96
*935 net97
*936 net98
*937 net99
*938 ANTENNA__0727__A
*939 ANTENNA__0727__B
*940 ANTENNA__0728__A
*941 ANTENNA__0728__B
*942 ANTENNA__0731__A
*943 ANTENNA__0732__A
*944 ANTENNA__0732__B
*945 ANTENNA__0733__A1
*946 ANTENNA__0733__A2
*947 ANTENNA__0734__A
*948 ANTENNA__0734__B
*949 ANTENNA__0735__A
*950 ANTENNA__0735__B
*951 ANTENNA__0740__A
*952 ANTENNA__0741__A
*953 ANTENNA__0742__B
*954 ANTENNA__0743__A
*955 ANTENNA__0744__A
*956 ANTENNA__0745__B
*957 ANTENNA__0746__A
*958 ANTENNA__0746__B
*959 ANTENNA__0747__B
*960 ANTENNA__0750__A
*961 ANTENNA__0750__B
*962 ANTENNA__0751__A
*963 ANTENNA__0752__A
*964 ANTENNA__0753__B1
*965 ANTENNA__0754__A
*966 ANTENNA__0756__A
*967 ANTENNA__0757__B
*968 ANTENNA__0758__A
*969 ANTENNA__0759__C1
*970 ANTENNA__0760__A2
*971 ANTENNA__0761__A
*972 ANTENNA__0762__B
*973 ANTENNA__0763__B
*974 ANTENNA__0767__A
*975 ANTENNA__0771__A
*976 ANTENNA__0773__B
*977 ANTENNA__0774__B
*978 ANTENNA__0779__B
*979 ANTENNA__0780__A
*980 ANTENNA__0781__A1
*981 ANTENNA__0781__B2
*982 ANTENNA__0781__C1
*983 ANTENNA__0782__A1
*984 ANTENNA__0783__A
*985 ANTENNA__0784__A
*986 ANTENNA__0786__A2
*987 ANTENNA__0786__B1
*988 ANTENNA__0786__C1
*989 ANTENNA__0789__A
*990 ANTENNA__0790__A
*991 ANTENNA__0792__A
*992 ANTENNA__0795__A
*993 ANTENNA__0795__B
*994 ANTENNA__0796__A
*995 ANTENNA__0796__B
*996 ANTENNA__0801__A2
*997 ANTENNA__0801__B1
*998 ANTENNA__0802__B
*999 ANTENNA__0802__C
*1000 ANTENNA__0804__A1
*1001 ANTENNA__0804__B2
*1002 ANTENNA__0804__C1
*1003 ANTENNA__0805__A1
*1004 ANTENNA__0806__A
*1005 ANTENNA__0806__B
*1006 ANTENNA__0807__A
*1007 ANTENNA__0807__B
*1008 ANTENNA__0811__A
*1009 ANTENNA__0812__A
*1010 ANTENNA__0815__B1
*1011 ANTENNA__0818__A
*1012 ANTENNA__0818__B
*1013 ANTENNA__0819__A
*1014 ANTENNA__0819__B
*1015 ANTENNA__0823__A
*1016 ANTENNA__0823__B
*1017 ANTENNA__0824__A
*1018 ANTENNA__0826__B
*1019 ANTENNA__0826__C
*1020 ANTENNA__0826__D
*1021 ANTENNA__0827__A
*1022 ANTENNA__0828__A1
*1023 ANTENNA__0829__A1
*1024 ANTENNA__0830__B1
*1025 ANTENNA__0832__A
*1026 ANTENNA__0832__B
*1027 ANTENNA__0837__A
*1028 ANTENNA__0839__A
*1029 ANTENNA__0842__A
*1030 ANTENNA__0842__B
*1031 ANTENNA__0843__A
*1032 ANTENNA__0843__B
*1033 ANTENNA__0848__A
*1034 ANTENNA__0849__A1
*1035 ANTENNA__0849__B2
*1036 ANTENNA__0849__C1
*1037 ANTENNA__0850__A1
*1038 ANTENNA__0852__A
*1039 ANTENNA__0852__B
*1040 ANTENNA__0853__B1
*1041 ANTENNA__0853__B2
*1042 ANTENNA__0855__A
*1043 ANTENNA__0856__A
*1044 ANTENNA__0860__A
*1045 ANTENNA__0861__A
*1046 ANTENNA__0861__B
*1047 ANTENNA__0862__A
*1048 ANTENNA__0862__B
*1049 ANTENNA__0866__A1
*1050 ANTENNA__0866__B1
*1051 ANTENNA__0867__A
*1052 ANTENNA__0867__B
*1053 ANTENNA__0868__A
*1054 ANTENNA__0869__A1
*1055 ANTENNA__0870__B1
*1056 ANTENNA__0872__A1
*1057 ANTENNA__0872__A2
*1058 ANTENNA__0872__B1
*1059 ANTENNA__0872__B2
*1060 ANTENNA__0873__A1
*1061 ANTENNA__0873__A2
*1062 ANTENNA__0876__A
*1063 ANTENNA__0876__B
*1064 ANTENNA__0877__A
*1065 ANTENNA__0877__B
*1066 ANTENNA__0880__A
*1067 ANTENNA__0881__A
*1068 ANTENNA__0884__B1
*1069 ANTENNA__0885__A
*1070 ANTENNA__0885__B
*1071 ANTENNA__0886__A
*1072 ANTENNA__0886__B
*1073 ANTENNA__0888__A
*1074 ANTENNA__0888__B
*1075 ANTENNA__0892__A
*1076 ANTENNA__0893__A
*1077 ANTENNA__0895__A1
*1078 ANTENNA__0895__B2
*1079 ANTENNA__0895__C1
*1080 ANTENNA__0897__A
*1081 ANTENNA__0897__B
*1082 ANTENNA__0898__A
*1083 ANTENNA__0898__B
*1084 ANTENNA__0902__A
*1085 ANTENNA__0903__A
*1086 ANTENNA__0909__A
*1087 ANTENNA__0910__A
*1088 ANTENNA__0911__A
*1089 ANTENNA__0911__B
*1090 ANTENNA__0912__A
*1091 ANTENNA__0912__B
*1092 ANTENNA__0916__A1
*1093 ANTENNA__0916__B2
*1094 ANTENNA__0917__A1
*1095 ANTENNA__0918__A
*1096 ANTENNA__0920__A
*1097 ANTENNA__0920__B
*1098 ANTENNA__0921__A
*1099 ANTENNA__0921__B
*1100 ANTENNA__0923__A
*1101 ANTENNA__0923__B
*1102 ANTENNA__0924__A1
*1103 ANTENNA__0924__A2
*1104 ANTENNA__0929__A
*1105 ANTENNA__0929__B
*1106 ANTENNA__0930__A1
*1107 ANTENNA__0930__B1
*1108 ANTENNA__0931__B1
*1109 ANTENNA__0933__A1
*1110 ANTENNA__0933__A2
*1111 ANTENNA__0933__B1
*1112 ANTENNA__0933__B2
*1113 ANTENNA__0935__A
*1114 ANTENNA__0938__A
*1115 ANTENNA__0938__B
*1116 ANTENNA__0941__B1
*1117 ANTENNA__0942__A
*1118 ANTENNA__0946__A
*1119 ANTENNA__0947__A1
*1120 ANTENNA__0947__D1
*1121 ANTENNA__0948__A
*1122 ANTENNA__0949__A
*1123 ANTENNA__0949__B
*1124 ANTENNA__0950__A1
*1125 ANTENNA__0957__A
*1126 ANTENNA__0958__A
*1127 ANTENNA__0961__B1
*1128 ANTENNA__0962__B1
*1129 ANTENNA__0963__A1
*1130 ANTENNA__0963__B2
*1131 ANTENNA__0964__A
*1132 ANTENNA__0964__B
*1133 ANTENNA__0965__A
*1134 ANTENNA__0965__B
*1135 ANTENNA__0969__A1
*1136 ANTENNA__0969__A2
*1137 ANTENNA__0969__B1
*1138 ANTENNA__0970__A1
*1139 ANTENNA__0970__A2
*1140 ANTENNA__0973__A
*1141 ANTENNA__0974__A
*1142 ANTENNA__0979__A
*1143 ANTENNA__0979__B
*1144 ANTENNA__0980__A
*1145 ANTENNA__0980__B
*1146 ANTENNA__0982__A
*1147 ANTENNA__0982__B
*1148 ANTENNA__0983__A1
*1149 ANTENNA__0986__B1
*1150 ANTENNA__0987__B
*1151 ANTENNA__0990__A1
*1152 ANTENNA__0991__A
*1153 ANTENNA__0992__A1
*1154 ANTENNA__0992__C1
*1155 ANTENNA__0993__A
*1156 ANTENNA__0993__B
*1157 ANTENNA__0994__A
*1158 ANTENNA__0994__B
*1159 ANTENNA__0998__A
*1160 ANTENNA__0999__A
*1161 ANTENNA__1007__B1
*1162 ANTENNA__1008__A
*1163 ANTENNA__1009__A1
*1164 ANTENNA__1011__A
*1165 ANTENNA__1011__B
*1166 ANTENNA__1012__A
*1167 ANTENNA__1012__B
*1168 ANTENNA__1016__A1
*1169 ANTENNA__1016__B2
*1170 ANTENNA__1017__A
*1171 ANTENNA__1018__A
*1172 ANTENNA__1018__B
*1173 ANTENNA__1023__A
*1174 ANTENNA__1026__A
*1175 ANTENNA__1026__B
*1176 ANTENNA__1027__A
*1177 ANTENNA__1027__B
*1178 ANTENNA__1029__A
*1179 ANTENNA__1029__B
*1180 ANTENNA__1030__A1
*1181 ANTENNA__1030__A2
*1182 ANTENNA__1033__A
*1183 ANTENNA__1033__B
*1184 ANTENNA__1034__A
*1185 ANTENNA__1036__A1
*1186 ANTENNA__1036__B2
*1187 ANTENNA__1036__C1
*1188 ANTENNA__1037__A1
*1189 ANTENNA__1038__A
*1190 ANTENNA__1038__B
*1191 ANTENNA__1041__A
*1192 ANTENNA__1042__A
*1193 ANTENNA__1043__A
*1194 ANTENNA__1043__B
*1195 ANTENNA__1044__A
*1196 ANTENNA__1044__B
*1197 ANTENNA__1046__A
*1198 ANTENNA__1046__B
*1199 ANTENNA__1049__A
*1200 ANTENNA__1051__A1
*1201 ANTENNA__1051__C1
*1202 ANTENNA__1052__A1
*1203 ANTENNA__1056__A1
*1204 ANTENNA__1056__B2
*1205 ANTENNA__1057__A
*1206 ANTENNA__1062__A
*1207 ANTENNA__1062__B
*1208 ANTENNA__1065__A
*1209 ANTENNA__1065__B
*1210 ANTENNA__1066__A
*1211 ANTENNA__1066__B
*1212 ANTENNA__1068__A1
*1213 ANTENNA__1068__A2
*1214 ANTENNA__1069__A
*1215 ANTENNA__1069__B
*1216 ANTENNA__1071__A
*1217 ANTENNA__1072__A
*1218 ANTENNA__1074__A
*1219 ANTENNA__1077__A
*1220 ANTENNA__1079__A
*1221 ANTENNA__1079__B
*1222 ANTENNA__1080__A
*1223 ANTENNA__1080__B
*1224 ANTENNA__1082__A1
*1225 ANTENNA__1082__A2
*1226 ANTENNA__1082__B1
*1227 ANTENNA__1082__C1
*1228 ANTENNA__1083__A1
*1229 ANTENNA__1083__A2
*1230 ANTENNA__1088__A1
*1231 ANTENNA__1088__B2
*1232 ANTENNA__1088__C1
*1233 ANTENNA__1089__A
*1234 ANTENNA__1089__B
*1235 ANTENNA__1090__A
*1236 ANTENNA__1090__B
*1237 ANTENNA__1093__B1
*1238 ANTENNA__1095__A
*1239 ANTENNA__1095__B
*1240 ANTENNA__1096__A
*1241 ANTENNA__1096__B
*1242 ANTENNA__1100__A
*1243 ANTENNA__1101__B1
*1244 ANTENNA__1105__A1
*1245 ANTENNA__1111__A
*1246 ANTENNA__1112__A
*1247 ANTENNA__1112__B
*1248 ANTENNA__1112__C
*1249 ANTENNA__1113__A1
*1250 ANTENNA__1113__A2
*1251 ANTENNA__1113__B1
*1252 ANTENNA__1114__B
*1253 ANTENNA__1115__B1
*1254 ANTENNA__1116__A1
*1255 ANTENNA__1116__B1
*1256 ANTENNA__1117__A1
*1257 ANTENNA__1118__A
*1258 ANTENNA__1118__B
*1259 ANTENNA__1119__A
*1260 ANTENNA__1119__B
*1261 ANTENNA__1121__A1
*1262 ANTENNA__1121__A2
*1263 ANTENNA__1124__A
*1264 ANTENNA__1124__B
*1265 ANTENNA__1125__A
*1266 ANTENNA__1125__B
*1267 ANTENNA__1127__A1
*1268 ANTENNA__1127__A2
*1269 ANTENNA__1130__A
*1270 ANTENNA__1131__A
*1271 ANTENNA__1135__A1
*1272 ANTENNA__1135__B2
*1273 ANTENNA__1136__B1
*1274 ANTENNA__1137__A
*1275 ANTENNA__1137__B
*1276 ANTENNA__1138__A
*1277 ANTENNA__1138__B
*1278 ANTENNA__1142__A
*1279 ANTENNA__1143__A
*1280 ANTENNA__1143__B
*1281 ANTENNA__1144__A1
*1282 ANTENNA__1144__B1
*1283 ANTENNA__1146__A
*1284 ANTENNA__1146__B
*1285 ANTENNA__1147__A
*1286 ANTENNA__1147__B
*1287 ANTENNA__1151__B1
*1288 ANTENNA__1152__A
*1289 ANTENNA__1154__A1
*1290 ANTENNA__1157__A1
*1291 ANTENNA__1157__B2
*1292 ANTENNA__1158__B1
*1293 ANTENNA__1161__A1
*1294 ANTENNA__1161__A2
*1295 ANTENNA__1164__A
*1296 ANTENNA__1164__B
*1297 ANTENNA__1165__A
*1298 ANTENNA__1165__B
*1299 ANTENNA__1170__A
*1300 ANTENNA__1173__A
*1301 ANTENNA__1174__A
*1302 ANTENNA__1174__B
*1303 ANTENNA__1174__C
*1304 ANTENNA__1177__A
*1305 ANTENNA__1177__B
*1306 ANTENNA__1178__A
*1307 ANTENNA__1178__B
*1308 ANTENNA__1181__A
*1309 ANTENNA__1181__B
*1310 ANTENNA__1186__A1
*1311 ANTENNA__1186__B2
*1312 ANTENNA__1186__C1
*1313 ANTENNA__1187__A1
*1314 ANTENNA__1187__B1
*1315 ANTENNA__1188__A1
*1316 ANTENNA__1189__A
*1317 ANTENNA__1189__B
*1318 ANTENNA__1190__A
*1319 ANTENNA__1190__B
*1320 ANTENNA__1194__A
*1321 ANTENNA__1194__B
*1322 ANTENNA__1195__A
*1323 ANTENNA__1195__B
*1324 ANTENNA__1199__A
*1325 ANTENNA__1200__B1
*1326 ANTENNA__1205__A1
*1327 ANTENNA__1206__A
*1328 ANTENNA__1210__A1
*1329 ANTENNA__1210__B2
*1330 ANTENNA__1211__B1
*1331 ANTENNA__1212__A
*1332 ANTENNA__1212__B
*1333 ANTENNA__1213__A
*1334 ANTENNA__1213__B
*1335 ANTENNA__1215__A
*1336 ANTENNA__1215__B
*1337 ANTENNA__1219__A1
*1338 ANTENNA__1219__B1
*1339 ANTENNA__1220__A
*1340 ANTENNA__1220__B
*1341 ANTENNA__1224__A
*1342 ANTENNA__1224__B
*1343 ANTENNA__1225__A
*1344 ANTENNA__1225__B
*1345 ANTENNA__1229__A
*1346 ANTENNA__1230__B1
*1347 ANTENNA__1233__B1
*1348 ANTENNA__1235__A1
*1349 ANTENNA__1236__A1
*1350 ANTENNA__1237__A
*1351 ANTENNA__1238__A
*1352 ANTENNA__1238__B
*1353 ANTENNA__1239__A
*1354 ANTENNA__1239__B
*1355 ANTENNA__1242__B1
*1356 ANTENNA__1244__A
*1357 ANTENNA__1245__A1
*1358 ANTENNA__1245__B1
*1359 ANTENNA__1246__A
*1360 ANTENNA__1246__B
*1361 ANTENNA__1247__A
*1362 ANTENNA__1247__B
*1363 ANTENNA__1251__A
*1364 ANTENNA__1252__B1
*1365 ANTENNA__1258__B2
*1366 ANTENNA__1259__B1
*1367 ANTENNA__1264__A
*1368 ANTENNA__1264__B
*1369 ANTENNA__1265__A
*1370 ANTENNA__1265__B
*1371 ANTENNA__1270__A
*1372 ANTENNA__1273__A
*1373 ANTENNA__1273__B
*1374 ANTENNA__1274__A
*1375 ANTENNA__1274__B
*1376 ANTENNA__1280__A1
*1377 ANTENNA__1280__A2
*1378 ANTENNA__1283__A
*1379 ANTENNA__1284__A1
*1380 ANTENNA__1284__B2
*1381 ANTENNA__1284__C1
*1382 ANTENNA__1285__A1
*1383 ANTENNA__1286__A1
*1384 ANTENNA__1286__B1
*1385 ANTENNA__1287__A
*1386 ANTENNA__1287__B
*1387 ANTENNA__1293__A1
*1388 ANTENNA__1293__B2
*1389 ANTENNA__1294__A1
*1390 ANTENNA__1298__A
*1391 ANTENNA__1298__B
*1392 ANTENNA__1299__A
*1393 ANTENNA__1299__B
*1394 ANTENNA__1303__A
*1395 ANTENNA__1304__B1
*1396 ANTENNA__1309__A
*1397 ANTENNA__1309__B
*1398 ANTENNA__1310__A
*1399 ANTENNA__1310__B
*1400 ANTENNA__1313__A
*1401 ANTENNA__1314__A1
*1402 ANTENNA__1314__C1
*1403 ANTENNA__1316__A
*1404 ANTENNA__1316__B
*1405 ANTENNA__1317__A
*1406 ANTENNA__1317__B
*1407 ANTENNA__1321__A
*1408 ANTENNA__1322__A
*1409 ANTENNA__1322__B
*1410 ANTENNA__1323__A
*1411 ANTENNA__1323__B
*1412 ANTENNA__1328__A
*1413 ANTENNA__1331__A
*1414 ANTENNA__1332__A1
*1415 ANTENNA__1332__B1
*1416 ANTENNA__1333__A1
*1417 ANTENNA__1334__B1
*1418 ANTENNA__1335__A
*1419 ANTENNA__1335__B
*1420 ANTENNA__1336__A
*1421 ANTENNA__1336__B
*1422 ANTENNA__1341__A
*1423 ANTENNA__1343__A
*1424 ANTENNA__1343__B
*1425 ANTENNA__1344__A
*1426 ANTENNA__1344__B
*1427 ANTENNA__1348__A
*1428 ANTENNA__1349__B1
*1429 ANTENNA__1353__A1
*1430 ANTENNA__1354__A1
*1431 ANTENNA__1356__B1
*1432 ANTENNA__1358__A1
*1433 ANTENNA__1358__B1
*1434 ANTENNA__1359__A1
*1435 ANTENNA__1360__B1
*1436 ANTENNA__1361__A
*1437 ANTENNA__1361__B
*1438 ANTENNA__1362__A
*1439 ANTENNA__1362__B
*1440 ANTENNA__1364__A
*1441 ANTENNA__1364__B
*1442 ANTENNA__1367__A
*1443 ANTENNA__1370__B1
*1444 ANTENNA__1376__A
*1445 ANTENNA__1376__B
*1446 ANTENNA__1377__A
*1447 ANTENNA__1377__B
*1448 ANTENNA__1381__A
*1449 ANTENNA__1381__B
*1450 ANTENNA__1382__A1
*1451 ANTENNA__1382__A2
*1452 ANTENNA__1382__B1
*1453 ANTENNA__1383__C
*1454 ANTENNA__1384__A1
*1455 ANTENNA__1386__A
*1456 ANTENNA__1387__A
*1457 ANTENNA__1387__B
*1458 ANTENNA__1388__A
*1459 ANTENNA__1388__B
*1460 ANTENNA__1391__B1
*1461 ANTENNA__1393__A
*1462 ANTENNA__1393__B
*1463 ANTENNA__1394__A
*1464 ANTENNA__1394__B
*1465 ANTENNA__1398__A
*1466 ANTENNA__1399__A1
*1467 ANTENNA__1400__A1
*1468 ANTENNA__1406__A
*1469 ANTENNA__1407__A1
*1470 ANTENNA__1407__B1
*1471 ANTENNA__1408__A1
*1472 ANTENNA__1409__B1
*1473 ANTENNA__1410__A
*1474 ANTENNA__1412__A
*1475 ANTENNA__1412__B
*1476 ANTENNA__1413__A
*1477 ANTENNA__1413__B
*1478 ANTENNA__1415__A
*1479 ANTENNA__1415__B
*1480 ANTENNA__1418__A
*1481 ANTENNA__1419__A
*1482 ANTENNA__1421__B1
*1483 ANTENNA__1423__A
*1484 ANTENNA__1424__A
*1485 ANTENNA__1425__A
*1486 ANTENNA__1425__B
*1487 ANTENNA__1426__A
*1488 ANTENNA__1426__B
*1489 ANTENNA__1430__B1
*1490 ANTENNA__1431__A1
*1491 ANTENNA__1432__B1
*1492 ANTENNA__1433__A
*1493 ANTENNA__1433__B
*1494 ANTENNA__1436__A
*1495 ANTENNA__1437__C1
*1496 ANTENNA__1440__A
*1497 ANTENNA__1444__A
*1498 ANTENNA__1445__C1
*1499 ANTENNA__1449__A
*1500 ANTENNA__1450__A2
*1501 ANTENNA__1450__C1
*1502 ANTENNA__1451__A1
*1503 ANTENNA__1452__A1
*1504 ANTENNA__1452__A2
*1505 ANTENNA__1452__B1
*1506 ANTENNA__1453__A2
*1507 ANTENNA__1453__C1
*1508 ANTENNA_clkbuf_0_clk_A
*1509 ANTENNA_input10_A
*1510 ANTENNA_input11_A
*1511 ANTENNA_input12_A
*1512 ANTENNA_input13_A
*1513 ANTENNA_input14_A
*1514 ANTENNA_input15_A
*1515 ANTENNA_input16_A
*1516 ANTENNA_input17_A
*1517 ANTENNA_input18_A
*1518 ANTENNA_input19_A
*1519 ANTENNA_input1_A
*1520 ANTENNA_input20_A
*1521 ANTENNA_input21_A
*1522 ANTENNA_input22_A
*1523 ANTENNA_input23_A
*1524 ANTENNA_input24_A
*1525 ANTENNA_input25_A
*1526 ANTENNA_input26_A
*1527 ANTENNA_input27_A
*1528 ANTENNA_input28_A
*1529 ANTENNA_input29_A
*1530 ANTENNA_input2_A
*1531 ANTENNA_input30_A
*1532 ANTENNA_input31_A
*1533 ANTENNA_input32_A
*1534 ANTENNA_input33_A
*1535 ANTENNA_input34_A
*1536 ANTENNA_input35_A
*1537 ANTENNA_input36_A
*1538 ANTENNA_input37_A
*1539 ANTENNA_input38_A
*1540 ANTENNA_input39_A
*1541 ANTENNA_input3_A
*1542 ANTENNA_input40_A
*1543 ANTENNA_input41_A
*1544 ANTENNA_input42_A
*1545 ANTENNA_input43_A
*1546 ANTENNA_input44_A
*1547 ANTENNA_input45_A
*1548 ANTENNA_input46_A
*1549 ANTENNA_input47_A
*1550 ANTENNA_input48_A
*1551 ANTENNA_input49_A
*1552 ANTENNA_input4_A
*1553 ANTENNA_input50_A
*1554 ANTENNA_input51_A
*1555 ANTENNA_input52_A
*1556 ANTENNA_input53_A
*1557 ANTENNA_input54_A
*1558 ANTENNA_input55_A
*1559 ANTENNA_input56_A
*1560 ANTENNA_input57_A
*1561 ANTENNA_input58_A
*1562 ANTENNA_input59_A
*1563 ANTENNA_input5_A
*1564 ANTENNA_input60_A
*1565 ANTENNA_input61_A
*1566 ANTENNA_input62_A
*1567 ANTENNA_input63_A
*1568 ANTENNA_input64_A
*1569 ANTENNA_input65_A
*1570 ANTENNA_input66_A
*1571 ANTENNA_input67_A
*1572 ANTENNA_input68_A
*1573 ANTENNA_input69_A
*1574 ANTENNA_input6_A
*1575 ANTENNA_input7_A
*1576 ANTENNA_input8_A
*1577 ANTENNA_input9_A
*1578 ANTENNA_output100_A
*1579 ANTENNA_output101_A
*1580 ANTENNA_output70_A
*1581 ANTENNA_output71_A
*1582 ANTENNA_output72_A
*1583 ANTENNA_output73_A
*1584 ANTENNA_output74_A
*1585 ANTENNA_output75_A
*1586 ANTENNA_output76_A
*1587 ANTENNA_output77_A
*1588 ANTENNA_output78_A
*1589 ANTENNA_output79_A
*1590 ANTENNA_output80_A
*1591 ANTENNA_output82_A
*1592 ANTENNA_output83_A
*1593 ANTENNA_output84_A
*1594 ANTENNA_output85_A
*1595 ANTENNA_output86_A
*1596 ANTENNA_output87_A
*1597 ANTENNA_output88_A
*1598 ANTENNA_output89_A
*1599 ANTENNA_output90_A
*1600 ANTENNA_output91_A
*1601 ANTENNA_output92_A
*1602 ANTENNA_output93_A
*1603 ANTENNA_output94_A
*1604 ANTENNA_output95_A
*1605 ANTENNA_output96_A
*1606 ANTENNA_output97_A
*1607 ANTENNA_output98_A
*1608 ANTENNA_output99_A
*1609 FILLER_0_108
*1610 FILLER_0_115
*1611 FILLER_0_127
*1612 FILLER_0_13
*1613 FILLER_0_133
*1614 FILLER_0_139
*1615 FILLER_0_141
*1616 FILLER_0_146
*1617 FILLER_0_154
*1618 FILLER_0_166
*1619 FILLER_0_169
*1620 FILLER_0_175
*1621 FILLER_0_181
*1622 FILLER_0_193
*1623 FILLER_0_197
*1624 FILLER_0_209
*1625 FILLER_0_21
*1626 FILLER_0_221
*1627 FILLER_0_225
*1628 FILLER_0_233
*1629 FILLER_0_245
*1630 FILLER_0_248
*1631 FILLER_0_257
*1632 FILLER_0_265
*1633 FILLER_0_27
*1634 FILLER_0_273
*1635 FILLER_0_279
*1636 FILLER_0_281
*1637 FILLER_0_286
*1638 FILLER_0_29
*1639 FILLER_0_294
*1640 FILLER_0_3
*1641 FILLER_0_306
*1642 FILLER_0_309
*1643 FILLER_0_314
*1644 FILLER_0_328
*1645 FILLER_0_337
*1646 FILLER_0_343
*1647 FILLER_0_35
*1648 FILLER_0_355
*1649 FILLER_0_363
*1650 FILLER_0_365
*1651 FILLER_0_373
*1652 FILLER_0_385
*1653 FILLER_0_388
*1654 FILLER_0_397
*1655 FILLER_0_405
*1656 FILLER_0_41
*1657 FILLER_0_413
*1658 FILLER_0_419
*1659 FILLER_0_421
*1660 FILLER_0_429
*1661 FILLER_0_433
*1662 FILLER_0_443
*1663 FILLER_0_447
*1664 FILLER_0_449
*1665 FILLER_0_454
*1666 FILLER_0_462
*1667 FILLER_0_474
*1668 FILLER_0_477
*1669 FILLER_0_483
*1670 FILLER_0_495
*1671 FILLER_0_503
*1672 FILLER_0_505
*1673 FILLER_0_515
*1674 FILLER_0_527
*1675 FILLER_0_53
*1676 FILLER_0_531
*1677 FILLER_0_533
*1678 FILLER_0_543
*1679 FILLER_0_553
*1680 FILLER_0_559
*1681 FILLER_0_561
*1682 FILLER_0_565
*1683 FILLER_0_57
*1684 FILLER_0_572
*1685 FILLER_0_63
*1686 FILLER_0_75
*1687 FILLER_0_80
*1688 FILLER_0_89
*1689 FILLER_0_97
*1690 FILLER_10_109
*1691 FILLER_10_121
*1692 FILLER_10_133
*1693 FILLER_10_139
*1694 FILLER_10_141
*1695 FILLER_10_15
*1696 FILLER_10_153
*1697 FILLER_10_165
*1698 FILLER_10_177
*1699 FILLER_10_189
*1700 FILLER_10_195
*1701 FILLER_10_197
*1702 FILLER_10_209
*1703 FILLER_10_221
*1704 FILLER_10_233
*1705 FILLER_10_245
*1706 FILLER_10_251
*1707 FILLER_10_253
*1708 FILLER_10_265
*1709 FILLER_10_27
*1710 FILLER_10_277
*1711 FILLER_10_289
*1712 FILLER_10_29
*1713 FILLER_10_3
*1714 FILLER_10_301
*1715 FILLER_10_307
*1716 FILLER_10_309
*1717 FILLER_10_321
*1718 FILLER_10_333
*1719 FILLER_10_345
*1720 FILLER_10_357
*1721 FILLER_10_363
*1722 FILLER_10_365
*1723 FILLER_10_377
*1724 FILLER_10_389
*1725 FILLER_10_401
*1726 FILLER_10_41
*1727 FILLER_10_413
*1728 FILLER_10_419
*1729 FILLER_10_421
*1730 FILLER_10_433
*1731 FILLER_10_445
*1732 FILLER_10_457
*1733 FILLER_10_469
*1734 FILLER_10_475